
 ****************************
 *** Specfem3D MPI Mesher ***
 ****************************

 Version: 8.1.1


 Planet: Earth


 There are            6  MPI processes
 Processes are numbered from 0 to            5

 There are           32  elements along xi in each chunk
 There are           32  elements along eta in each chunk

 There are            1  slices along xi in each chunk
 There are            1  slices along eta in each chunk
 There is a total of            1  slices in each chunk
 There are            6  chunks in the global mesh
 There is a total of            6  slices in the global mesh

 NGLLX =            5
 NGLLY =            5
 NGLLZ =            5

 Shape functions defined by NGNOD =           27  control nodes
 Surface shape functions defined by NGNOD2D =            9  control nodes

 model: s362ani
   no oceans
   no ellipticity
   no surface topography
   incorporating self-gravitation (Cowling approximation)
   incorporating rotation
   incorporating attenuation using            3  standard linear solids

   incorporating 3-D lateral variations in the mantle
   no heterogeneities in the mantle
   incorporating crustal variations
   using one layer only in crust
   incorporating transverse isotropy
   no inner-core anisotropy
   no general mantle anisotropy

 Reference radius of the globe used is    6371.0000000000000       km

 Central cube is at a radius of    950.00000000000000       km
 creating global slice addressing

 Spatial distribution of the slices
                        0

     2       1       4

                        5

                        3

 broadcast model: S362ANI models

 incorporating crustal model: CRUST2.0

   Moho crustal thickness (without ice) min/max =    6.65000010       75.0000000      km


   VTK moho output: resolution =            1 deg
                    NLAT =          180
                    NLON =          360

   moho depths written to file: ./DATABASES_MPI/mesh_moho_depth.vtk
   min/max =    6.65000534     /   75.0000610     (km)

   sediment depths written to file: ./DATABASES_MPI/mesh_sediment_depth.vtk
   min/max =    0.00000000     /   17.2562771     (km)

 attenuation model:
   1D reference model
   model: 1D_REF attenuation

 additional mesh optimizations

 moho:
   default  2-layer crust
   no element stretching for 3-D moho surface

 internal topography 410/660:
   incorporating element stretching for 3-D internal surfaces


 Radial Meshing parameters:
   NCHUNKS                =            6

   CENTER LAT/LON:             0.00000000     /   0.00000000
   GAMMA_ROTATION_AZIMUTH:     0.00000000

   CHUNK WIDTH XI/ETA:         90.0000000     /   90.0000000
   NEX XI/ETA:                        32 /          32

   NER_CRUST:                          2
   NER_80_MOHO:                        1
   NER_220_80:                         2
   NER_400_220:                        2
   NER_600_400:                        2
   NER_670_600:                        1
   NER_771_670:                        2
   NER_TOPDDOUBLEPRIME_771:           15
   NER_CMB_TOPDDOUBLEPRIME:            1
   NER_OUTER_CORE:                    16
   NER_TOP_CENTRAL_CUBE_ICB:           2
   SUPPRESS_CRUSTAL_MESH:    F

   R_CENTRAL_CUBE =    950.000000      km

 Mesh resolution:
   DT =   0.11500000000000000
   Minimum period =    138.993652      (s)

   MIN_ATTENUATION_PERIOD =    138.993652
   MAX_ATTENUATION_PERIOD =    7816.18799



 *******************************************
 creating mesh in region            1
 this region is the crust and mantle
 *******************************************


 first pass

   ...allocating arrays

   ...setting up layers

   ...creating mesh elements
   creating layer            1 out of           10
     number of regular elements  =            0
     number of doubling elements =         1792
   setting tiso flags in mantle model
     10.0%    current clock (NOT elapsed) time is: 17h 27min 57sec
   creating layer            2 out of           10
     number of regular elements  =          512
     20.0%    current clock (NOT elapsed) time is: 17h 27min 57sec
   creating layer            3 out of           10
     number of regular elements  =           64
     30.0%    current clock (NOT elapsed) time is: 17h 27min 57sec
   creating layer            4 out of           10
     number of regular elements  =          384
     number of doubling elements =          512
     40.0%    current clock (NOT elapsed) time is: 17h 27min 57sec
   creating layer            5 out of           10
     number of regular elements  =         1792
     50.0%    current clock (NOT elapsed) time is: 17h 27min 57sec
   creating layer            6 out of           10
     number of regular elements  =          512
     60.0%    current clock (NOT elapsed) time is: 17h 27min 57sec
   creating layer            7 out of           10
     number of regular elements  =          256
     70.0%    current clock (NOT elapsed) time is: 17h 27min 58sec
   creating layer            8 out of           10
     number of regular elements  =          512
     80.0%    current clock (NOT elapsed) time is: 17h 27min 58sec
   creating layer            9 out of           10
     number of regular elements  =          512
     90.0%    current clock (NOT elapsed) time is: 17h 27min 58sec
   creating layer           10 out of           10
     number of regular elements  =         2048
    100.0%    current clock (NOT elapsed) time is: 17h 27min 58sec
   layers done

   number of elements (per slice)        =         8896
   total number of elements (all slices) =        53376


   ...creating global addressing
     total number of points            :      1112000
     array memory required per process :    25.451660156250000      MB
     getting global points             : npointot =      1112000  nspec =         8896
     creating indirect addressing
     ibool ok

   ...creating MPI buffers

 second pass

   ...allocating arrays

   ...setting up layers

   ...creating mesh elements
   creating layer            1 out of           10
     number of regular elements  =            0
     number of doubling elements =         1792
     10.0%    current clock (NOT elapsed) time is: 17h 28min 03sec
   creating layer            2 out of           10
     number of regular elements  =          512
     20.0%    current clock (NOT elapsed) time is: 17h 28min 04sec
   creating layer            3 out of           10
     number of regular elements  =           64
     30.0%    current clock (NOT elapsed) time is: 17h 28min 04sec
   creating layer            4 out of           10
     number of regular elements  =          384
     number of doubling elements =          512
     40.0%    current clock (NOT elapsed) time is: 17h 28min 06sec
   creating layer            5 out of           10
     number of regular elements  =         1792
     50.0%    current clock (NOT elapsed) time is: 17h 28min 09sec
   creating layer            6 out of           10
     number of regular elements  =          512
     60.0%    current clock (NOT elapsed) time is: 17h 28min 10sec
   creating layer            7 out of           10
     number of regular elements  =          256
     70.0%    current clock (NOT elapsed) time is: 17h 28min 11sec
   creating layer            8 out of           10
     number of regular elements  =          512
     80.0%    current clock (NOT elapsed) time is: 17h 28min 12sec
   creating layer            9 out of           10
     number of regular elements  =          512
     90.0%    current clock (NOT elapsed) time is: 17h 28min 13sec
   creating layer           10 out of           10
     number of regular elements  =         2048
    100.0%    current clock (NOT elapsed) time is: 17h 28min 18sec
   layers done

   number of elements (per slice)        =         8896
   total number of elements (all slices) =        53376


   ...fills global mesh points

   ...checking mesh resolution and time step

 ----------------------------------
   Verification of mesh parameters:
 ----------------------------------
   Region is crust/mantle

   Min Vs =    1.00875068      (km/s)
   Max Vp =    13.8181944      (km/s)

   Max element edge size =    890.984314      (km)
   Min element edge size =    14.9970064      (km)
   Max/min ratio =    59.4108124

   Max Jacobian eigenvalue ratio =   0.432912558
   Min Jacobian eigenvalue ratio =    3.16540636E-02

   Minimum period resolved =    28.2879219      (s)
   Minimum period resolved (empirical) =    138.993652      (s)
   Maximum suggested time step =   0.165000007      (s)

   for DT :   0.115000002      (s)
   Max stability for wave velocities =   0.373702496
 ----------------------------------

   saving vtk mesh files for resolution res_minimum_period...

   ...precomputing Jacobian

   ...creating chunk buffers

 ----- creating chunk buffers -----

 There are            1  slices along xi in each chunk
 There are            1  slices along eta in each chunk
 There is a total of            1  slices in each chunk
 There are            6  chunks
 There is a total of            6  slices in all the chunks

 There is a total of           12  messages to assemble faces between chunks

 Generating message            1  for faces out of           12
 Generating message            2  for faces out of           12
 Generating message            3  for faces out of           12
 Generating message            4  for faces out of           12
 Generating message            5  for faces out of           12
 Generating message            6  for faces out of           12
 Generating message            7  for faces out of           12
 Generating message            8  for faces out of           12
 Generating message            9  for faces out of           12
 Generating message           10  for faces out of           12
 Generating message           11  for faces out of           12
 Generating message           12  for faces out of           12

 all the messages for chunk faces have the right size

 Generating message            1  for corners out of            8
 Generating message            2  for corners out of            8
 Generating message            3  for corners out of            8
 Generating message            4  for corners out of            8
 Generating message            5  for corners out of            8
 Generating message            6  for corners out of            8
 Generating message            7  for corners out of            8
 Generating message            8  for corners out of            8

   ...preparing MPI interfaces

 crust/mantle region:
   no MPI buffers needed
 crust mantle MPI:
   maximum interfaces:           4
   MPI addressing maximum interfaces:           4
   MPI addressing : all interfaces okay

   total MPI interface points :       179736
   unique MPI interface points:       177024
   maximum valence            :            2
   total unique MPI interface points:      177024


   ...element inner/outer separation

 for overlapping of communications with calculations:

 percentage of edge elements in crust/mantle    20.6834526     %
 percentage of volume elements in crust/mantle    79.3165436     %


   ...element mesh coloring
   mesh coloring:  F

   ...creating mass matrix

   ...saving binary files

   ...saving mesh files

 calculated region volume:    3.50616097
                 top area:    12.5663700
             exact area:    12.566370614359172
              bottom area:    3.74921989
             exact area:    3.7492349663512523

 *******************************************
 creating mesh in region            2
 this region is the outer core
 *******************************************


 first pass

   ...allocating arrays

   ...setting up layers

   ...creating mesh elements
   creating layer            1 out of            2
     number of regular elements  =          112
     number of doubling elements =          128
     50.0%    current clock (NOT elapsed) time is: 17h 28min 25sec
   creating layer            2 out of            2
     number of regular elements  =          448
    100.0%    current clock (NOT elapsed) time is: 17h 28min 25sec
   layers done

   number of elements (per slice)        =          688
   total number of elements (all slices) =         4128


   ...creating global addressing
     total number of points            :        86000
     array memory required per process :    1.9683837890625000      MB
     getting global points             : npointot =        86000  nspec =          688
     creating indirect addressing
     ibool ok

   ...creating MPI buffers

 second pass

   ...allocating arrays

   ...setting up layers

   ...creating mesh elements
   creating layer            1 out of            2
     number of regular elements  =          112
     number of doubling elements =          128
     50.0%    current clock (NOT elapsed) time is: 17h 28min 25sec
   creating layer            2 out of            2
     number of regular elements  =          448
    100.0%    current clock (NOT elapsed) time is: 17h 28min 25sec
   layers done

   number of elements (per slice)        =          688
   total number of elements (all slices) =         4128


   ...fills global mesh points

   ...checking mesh resolution and time step

 ----------------------------------
   Verification of mesh parameters:
 ----------------------------------
   Region is outer core

   Min Vp =    8.06482601      (km/s)
   Max Vp =    10.3556900      (km/s)

   Max element edge size =    910.548462      (km)
   Min element edge size =    70.5769730      (km)
   Max/min ratio =    12.9014950

   Max Jacobian eigenvalue ratio =   0.445263296
   Min Jacobian eigenvalue ratio =    5.24087101E-02

   Minimum period resolved =    21.8780518      (s)
   Minimum period resolved (empirical) =    138.993652      (s)
   Maximum suggested time step =   0.689999998      (s)

   for DT :   0.115000002      (s)
   Max stability for wave velocities =    9.11586285E-02
 ----------------------------------

   saving vtk mesh files for resolution res_minimum_period...

   ...precomputing Jacobian

   ...creating chunk buffers

 ----- creating chunk buffers -----

 There are            1  slices along xi in each chunk
 There are            1  slices along eta in each chunk
 There is a total of            1  slices in each chunk
 There are            6  chunks
 There is a total of            6  slices in all the chunks

 There is a total of           12  messages to assemble faces between chunks

 Generating message            1  for faces out of           12
 Generating message            2  for faces out of           12
 Generating message            3  for faces out of           12
 Generating message            4  for faces out of           12
 Generating message            5  for faces out of           12
 Generating message            6  for faces out of           12
 Generating message            7  for faces out of           12
 Generating message            8  for faces out of           12
 Generating message            9  for faces out of           12
 Generating message           10  for faces out of           12
 Generating message           11  for faces out of           12
 Generating message           12  for faces out of           12

 all the messages for chunk faces have the right size

 Generating message            1  for corners out of            8
 Generating message            2  for corners out of            8
 Generating message            3  for corners out of            8
 Generating message            4  for corners out of            8
 Generating message            5  for corners out of            8
 Generating message            6  for corners out of            8
 Generating message            7  for corners out of            8
 Generating message            8  for corners out of            8

   ...preparing MPI interfaces

 outer core region:
   no MPI buffers needed
 outer core MPI:
   maximum interfaces:           4
   MPI addressing maximum interfaces:           4
   MPI addressing : all interfaces okay

   total MPI interface points :        40536
   unique MPI interface points:        38976
   maximum valence            :            2
   total assembled MPI interface points:       38976


   ...element inner/outer separation
 percentage of edge elements in outer core    51.1627922     %
 percentage of volume elements in outer core    48.8372078     %


   ...element mesh coloring
   mesh coloring:  F

   ...creating mass matrix

   ...saving binary files

   ...saving mesh files

 calculated region volume:   0.653110981
                 top area:    3.74921989
             exact area:    3.7492349663512523
              bottom area:   0.461899042
             exact area:   0.46192896649225867

 *******************************************
 creating mesh in region            3
 this region is the inner core
 *******************************************


 first pass

   ...allocating arrays

   ...setting up layers

   ...creating mesh elements
   creating layer            1 out of            1
     number of regular elements  =           32
    100.0%    current clock (NOT elapsed) time is: 17h 28min 25sec
   layers done

   number of elements (per slice)        =           32
   total number of elements (all slices) =          192

   creating central cube
   central cube done
     total number of elements =           96


   ...creating global addressing
     total number of points            :        12000
     array memory required per process :   0.27465820312500000      MB
     getting global points             : npointot =        12000  nspec =           96
     creating indirect addressing
     ibool ok

   ...creating MPI buffers

 second pass

   ...allocating arrays

   ...setting up layers

   ...creating mesh elements
   creating layer            1 out of            1
     number of regular elements  =           32
    100.0%    current clock (NOT elapsed) time is: 17h 28min 25sec
   layers done

   number of elements (per slice)        =           32
   total number of elements (all slices) =          192

   creating central cube
   central cube done
     total number of elements =           96


   ...fills global mesh points

   ...checking mesh resolution and time step

 ----------------------------------
   Verification of mesh parameters:
 ----------------------------------
   Region is inner core

   Min Vs =    3.50431037      (km/s)
   Max Vp =    11.2622004      (km/s)

   Max element edge size =    476.602142      (km)
   Min element edge size =    135.745483      (km)
   Max/min ratio =    3.51099825

   Max Jacobian eigenvalue ratio =    1.00000000
   Min Jacobian eigenvalue ratio =   0.246194005

   Minimum period resolved =    111.885880      (s)
   Minimum period resolved (empirical) =    138.993652      (s)
   Maximum suggested time step =    1.14999998      (s)

   for DT :   0.115000002      (s)
   Max stability for wave velocities =    5.45606799E-02
 ----------------------------------

   saving vtk mesh files for resolution res_minimum_period...

   ...precomputing Jacobian

   ...creating chunk buffers

 ----- creating chunk buffers -----

 There are            1  slices along xi in each chunk
 There are            1  slices along eta in each chunk
 There is a total of            1  slices in each chunk
 There are            6  chunks
 There is a total of            6  slices in all the chunks

 There is a total of           12  messages to assemble faces between chunks

 Generating message            1  for faces out of           12
 Generating message            2  for faces out of           12
 Generating message            3  for faces out of           12
 Generating message            4  for faces out of           12
 Generating message            5  for faces out of           12
 Generating message            6  for faces out of           12
 Generating message            7  for faces out of           12
 Generating message            8  for faces out of           12
 Generating message            9  for faces out of           12
 Generating message           10  for faces out of           12
 Generating message           11  for faces out of           12
 Generating message           12  for faces out of           12

 all the messages for chunk faces have the right size

 Generating message            1  for corners out of            8
 Generating message            2  for corners out of            8
 Generating message            3  for corners out of            8
 Generating message            4  for corners out of            8
 Generating message            5  for corners out of            8
 Generating message            6  for corners out of            8
 Generating message            7  for corners out of            8
 Generating message            8  for corners out of            8

   ...preparing MPI interfaces

 inner core region:
   no MPI buffers needed

 including central cube
   number of messages in cube :            5
   number of 2D points in cube:          400
   creating central cube done

 inner core MPI:
 inner core with central cube MPI:
   maximum interfaces:           5
   MPI addressing maximum interfaces:           5
   MPI addressing : all interfaces okay

   total MPI interface points :         6426
   unique MPI interface points:         5830
   maximum valence            :            3
   total assembled MPI interface points:        5830


   ...element inner/outer separation
 percentage of edge elements in inner core    54.1666679     %
 percentage of volume elements in inner core    45.8333321     %


   ...element mesh coloring
   mesh coloring:  F

   ...creating mass matrix

   ...saving binary files

   ...saving mesh files

 calculated region volume:    2.95181293E-02
                 top area:   0.461899042
             exact area:   0.46192896649225867
              bottom area:   0.211699098
             more or less similar area (central cube):   0.17787790385168645

 calculated volume:    4.1887900923192465
      exact volume:    4.1887902047863905

 computed total Earth mass for this density model and mesh:
       5.97938239E+24  kg
    (should be not too far from 5.974E+24 kg)

 average density for this density model and mesh:
       5520.07422      kg/m3
    (should be not too far from 5514 kg/m3)

 position of the center of mass of the globe for this density model and mesh:
    x =  -0.795708299      km
    y =  -0.915687621      km
    z =   -1.54379427      km
    distance to center =    1.96339917      km

 Repartition of elements in regions:
 ----------------------------------

 number of elements in each slice      :         9680
 total number of elements in all slices:        58080

  - crust and mantle:    91.9008255      %
  - outer core:    7.10743809      %
  - inner core:   0.991735518      %

 for some mesh statistics, see comments in file OUTPUT_FILES/values_from_mesher.h

 Load balancing = 100 % by definition


 the time step of the solver will be DT =   0.115000002

 using single precision for the calculations

 smallest and largest possible floating-point numbers are:    1.17549435E-38   3.40282347E+38


 Elapsed time for mesh generation and buffer creation in seconds =    29.0873528
 Elapsed time for mesh generation and buffer creation in hh:mm:ss =    0 h 00 m 29 s

 End of mesh generation

