
 ******************************
 **** Specfem3D MPI Solver ****
 ******************************

 Version: 7.0.2

 Fixing slow underflow trapping problem using small initial field

 There are            6  MPI processes
 Processes are numbered from 0 to            5

 There are           32  elements along xi in each chunk
 There are           32  elements along eta in each chunk

 There are            1  slices along xi in each chunk
 There are            1  slices along eta in each chunk
 There is a total of            1  slices in each chunk
 There are            6  chunks
 There is a total of            6  slices in all the chunks

 NDIM =            3

 NGLLX =            5
 NGLLY =            5
 NGLLZ =            5

 using single precision for the calculations

 smallest and largest possible floating-point numbers are:    1.17549435E-38   3.40282347E+38

 model: s40rts
   no oceans
   no ellipticity
   no surface topography
   incorporating self-gravitation (Cowling approximation)
   incorporating rotation
   no attenuation

   incorporating 3-D lateral variations
   no heterogeneities in the mantle
   incorporating crustal variations
   using one layer only in crust
   incorporating transverse isotropy
   no inner-core anisotropy
   no general mantle anisotropy


 mesh databases:
   reading in crust/mantle databases...
   reading in outer core databases...
   reading in inner core databases...
   reading in coupling surface databases...
   reading in addressing...
 Spatial distribution of the slices
                        0

     2       1       4

                        5

                        3

   reading in MPI databases...
   for overlapping of communications with calculations:

   percentage of edge elements in crust/mantle    20.6018524     %
   percentage of volume elements in crust/mantle    79.3981476     %

   percentage of edge elements in outer core    51.1627922     %
   percentage of volume elements in outer core    48.8372078     %

   percentage of edge elements in inner core    54.1666679     %
   percentage of volume elements in inner core    45.8333321     %


 Elapsed time for reading mesh in seconds =   0.232259989


 sources:           1

 ********************
  locating sources
 ********************


 source #            1

   source located in slice            4
                  in element         8526

   using moment tensor source:
     xi coordinate of source in that element:  -0.58368927071452426
     eta coordinate of source in that element:  -0.59821803376616112
     gamma coordinate of source in that element:  -0.60017658180726396

   source time function:
     using (quasi) Heaviside source time function

     half duration:    5.0999999999999996       seconds
     time shift:    0.0000000000000000       seconds

   magnitude of the source:
        scalar moment M0 =    1.1665702100602432E+026  dyne-cm
     moment magnitude Mw =    6.6779407786960121


   original (requested) position of the source:

         latitude:    36.789999999999999
        longitude:    27.559999999999999
            depth:    12.000000000000000       km

   position of the source that will be used:

         latitude:    36.790000000000013
        longitude:    27.560000000000002
            depth:    11.999999999999526       km

   Error in location of the source:    1.06098463E-12  km

 maximum error in location of the sources:    1.06098463E-12  km


 Elapsed time for detection of sources in seconds =    3.6718845367431641E-003

 End of source detection - done


 printing the source-time function

 printing the source spectrum

 receivers:

 Total number of receivers =           12


 ********************
  locating receivers
 ********************

 reading receiver information...

 Stations sorted by epicentral distance:
 Station #     4:                  II.RAYN    epicentral distance:     20.340000 degrees
 Station #     5:                  IU.KONO    epicentral distance:     25.646019 degrees
 Station #     1:                   II.GAR    epicentral distance:     33.588970 degrees
 Station #     2:                  II.BRVK    epicentral distance:     33.757610 degrees
 Station #     8:                  IU.MSKU    epicentral distance:     40.390751 degrees
 Station #     6:                  II.MSEY    epicentral distance:     48.797527 degrees
 Station #     3:                   II.TLY    epicentral distance:     54.066559 degrees
 Station #    10:                   IU.SJG    epicentral distance:     82.251007 degrees
 Station #     7:                  II.KAPI    epicentral distance:     94.724159 degrees
 Station #     9:                  IU.CTAO    epicentral distance:    124.463257 degrees
 Station #    12:                   II.RPN    epicentral distance:    142.447479 degrees
 Station #    11:                   IU.RAR    epicentral distance:    163.215393 degrees

 maximum error in location of all the receivers:    3.00091766E-12  km

 Elapsed time for receiver detection in seconds =    1.5162944793701172E-002

 End of receiver detection - done


 found a total of           12  receivers in all slices
 this total is okay

 source arrays:
   number of sources is            1
   size of source array                 =    1.43051147E-03 MB
                                        =    1.39698386E-06 GB

 seismograms:
   seismograms written by master process only
   writing out seismograms at every NTSTEP_BETWEEN_OUTPUT_SEISMOS =          700
   maximum number of local receivers is            4  in slice            3
   size of maximum seismogram array       =    3.20434570E-02 MB
                                          =    3.12924385E-05 GB


 Total number of samples for seismograms =          700


 Reference radius of the Earth used is    6371.0000000000000       km


 no oceans

 no ellipticity

 no surface topography

 incorporating self-gravitation (Cowling approximation)

 incorporating rotation
   using exact mass matrix for rotation

 no attenuation



 preparing mass matrices
 preparing constants
 preparing gravity arrays
 preparing elastic element arrays
   crust/mantle transverse isotropic and isotropic elements
   tiso elements =         4352
   iso elements  =         4288
 preparing wavefields
   allocating wavefields
   initializing wavefields
 preparing optimized arrays
   using force vectorization
   using Deville products
   inverse table of ibool done
   fused array done
   bandwidth test (STREAM TRIAD):
      memory accesses =    19.7758369     MB
      timing  min/max =    3.46279144E-03 s /    8.89897346E-03 s
      timing      avg =    4.43038950E-03 s
      bandwidth       =    4.35906172     GB/s


 Elapsed time for preparing timerun in seconds =   0.701195002


 time loop:

               scheme:         Newmark
            time step:   0.118749999      s
 number of time steps:          700
 total simulated time:    1.25593746      minutes
 start time          :  -7.65000010      seconds

 All processes are synchronized before time loop

 Starting time iteration loop...

 Time step #            5
 Time:  -0.119583331      minutes
 Max norm displacement vector U in solid in all slices for forward prop. (m) =    1.04266621E-06
 Max non-dimensional potential Ufluid in fluid in all slices for forward prop. =    1.00033815E-24
 Elapsed time in seconds =   0.63271117210388184
 Elapsed time in hh:mm:ss =      0 h 00 m 00 s
 Mean elapsed time per time step in seconds =   0.12654223442077636
 Time steps done =            5  out of          700
 Time steps remaining =          695
 Estimated remaining time in seconds =    87.946852922439575
 Estimated remaining time in hh:mm:ss =      0 h 01 m 27 s
 Estimated total run time in seconds =    88.579564094543457
 Estimated total run time in hh:mm:ss =      0 h 01 m 28 s
 We have done   0.714285731     % of that
 The run will finish approximately on (in local time): Thu Jul 26, 2018 23:36
 ************************************************************
 **** BEWARE: the above time estimates are not very reliable
 **** because fewer than 100 iterations have been performed
 ************************************************************

 Time step #          200
 Time:   0.266354173      minutes
 Max norm displacement vector U in solid in all slices for forward prop. (m) =    2.54402254E-02
 Max non-dimensional potential Ufluid in fluid in all slices for forward prop. =    1.03527443E-24
 Elapsed time in seconds =    33.909991025924683
 Elapsed time in hh:mm:ss =      0 h 00 m 33 s
 Mean elapsed time per time step in seconds =   0.16954995512962343
 Time steps done =          200  out of          700
 Time steps remaining =          500
 Estimated remaining time in seconds =    84.774977564811707
 Estimated remaining time in hh:mm:ss =      0 h 01 m 24 s
 Estimated total run time in seconds =    118.68496859073639
 Estimated total run time in hh:mm:ss =      0 h 01 m 58 s
 We have done    28.5714283     % of that
 The run will finish approximately on (in local time): Thu Jul 26, 2018 23:37

 Time step #          400
 Time:   0.662187517      minutes
 Max norm displacement vector U in solid in all slices for forward prop. (m) =    2.38649845E-02
 Max non-dimensional potential Ufluid in fluid in all slices for forward prop. =    1.06726925E-24
 Elapsed time in seconds =    68.186282157897949
 Elapsed time in hh:mm:ss =      0 h 01 m 08 s
 Mean elapsed time per time step in seconds =   0.17046570539474487
 Time steps done =          400  out of          700
 Time steps remaining =          300
 Estimated remaining time in seconds =    51.139711618423462
 Estimated remaining time in hh:mm:ss =      0 h 00 m 51 s
 Estimated total run time in seconds =    119.32599377632141
 Estimated total run time in hh:mm:ss =      0 h 01 m 59 s
 We have done    57.1428566     % of that
 The run will finish approximately on (in local time): Thu Jul 26, 2018 23:37

 Time step #          600
 Time:    1.05802083      minutes
 Max norm displacement vector U in solid in all slices for forward prop. (m) =    2.43633389E-02
 Max non-dimensional potential Ufluid in fluid in all slices for forward prop. =    1.09640158E-24
 Elapsed time in seconds =    102.53481817245483
 Elapsed time in hh:mm:ss =      0 h 01 m 42 s
 Mean elapsed time per time step in seconds =   0.17089136362075805
 Time steps done =          600  out of          700
 Time steps remaining =          100
 Estimated remaining time in seconds =    17.089136362075806
 Estimated remaining time in hh:mm:ss =      0 h 00 m 17 s
 Estimated total run time in seconds =    119.62395453453064
 Estimated total run time in hh:mm:ss =      0 h 01 m 59 s
 We have done    85.7142868     % of that
 The run will finish approximately on (in local time): Thu Jul 26, 2018 23:37

 Time step #          700
 Time:    1.25593746      minutes
 Max norm displacement vector U in solid in all slices for forward prop. (m) =    2.43690535E-02
 Max non-dimensional potential Ufluid in fluid in all slices for forward prop. =    1.11059033E-24
 Elapsed time in seconds =    119.77800107002258
 Elapsed time in hh:mm:ss =      0 h 01 m 59 s
 Mean elapsed time per time step in seconds =   0.17111143010003227
 Time steps done =          700  out of          700
 Time steps remaining =            0
 Estimated remaining time in seconds =    0.0000000000000000
 Estimated remaining time in hh:mm:ss =      0 h 00 m 00 s
 Estimated total run time in seconds =    119.77800107002258
 Estimated total run time in hh:mm:ss =      0 h 01 m 59 s
 We have done    100.000000     % of that


 Total number of receivers saved is           12  out of           12


 Total number of time steps written:          700

 Writing the seismograms by master proc alone took    7.3403120040893555E-002  seconds

 Time-Loop Complete. Timing info:
 Total elapsed time in seconds =    120.01965403556824
 Total elapsed time in hh:mm:ss =      0 h 02 m 00 s
 finalizing simulation

 End of the simulation

