
 ******************************
 **** Specfem3D MPI Solver ****
 ******************************

 Version: 8.1.1


 Planet: Earth


 There are            4  MPI processes
 Processes are numbered from 0 to            3

 There are           32  elements along xi in each chunk
 There are           32  elements along eta in each chunk

 There are            2  slices along xi in each chunk
 There are            2  slices along eta in each chunk
 There is a total of            4  slices in each chunk
 There are            1  chunks
 There is a total of            4  slices in all the chunks

 NDIM =            3

 NGLLX =            5
 NGLLY =            5
 NGLLZ =            5

 using single precision for the calculations

 smallest and largest possible floating-point numbers are:    1.17549435E-38   3.40282347E+38

 model: sgloberani_aniso
   no oceans
   no ellipticity
   no surface topography
   no self-gravitation
   no rotation
   no attenuation

   incorporating 3-D lateral variations in the mantle
   no heterogeneities in the mantle
   incorporating crustal variations
   using one layer only in crust
   incorporating transverse isotropy
   no inner-core anisotropy
   no general mantle anisotropy


 creating global slice addressing

 mesh databases:
   reading in crust/mantle databases...
   reading in outer core databases...
   reading in inner core databases...
   reading in coupling surface databases...
   reading in MPI databases...
   for overlapping of communications with calculations:

   percentage of edge elements in crust/mantle    20.6018524     %
   percentage of volume elements in crust/mantle    79.3981476     %

   percentage of edge elements in outer core    51.1627922     %
   percentage of volume elements in outer core    48.8372078     %

   percentage of edge elements in inner core    75.0000000     %
   percentage of volume elements in inner core    25.0000000     %

   reading in Stacey databases...

 Elapsed time for reading mesh in seconds =    7.47810006E-02

 adjacency:
   total number of elements in this slice =         2160

   using kd-tree search radius =    1876.4143871269287      (km)

   maximum search elements                                      =         1208
   maximum of actual search elements (after distance criterion) =         1207

   estimated typical element size at surface =    312.73573118782144      (km)
   maximum distance between neighbor centers =    1418.9232077676302      (km)

   maximum neighbors found per element =           37 (should be 37 for globe meshes)
   total number of neighbors           =        47284

   Elapsed time for detection of neighbors in seconds =   0.12982500000000000

 kd-tree:
   total data points:        58320
   theoretical   number of nodes:       116632
                tree memory size:    3.55932617     MB
   actual        number of nodes:       116639
                tree memory size:    3.55953979     MB
   maximum depth   :           21
   creation timing :    1.34239942E-02 (s)


 sources:         239

 ********************
  locating sources
 ********************


 source #            1

   source located in slice            3
                  in element         1685

   using moment tensor source:
     xi coordinate of source in that element:  -0.21847033488352277
     eta coordinate of source in that element:  -0.93831654561720712
     gamma coordinate of source in that element:    5.9878936878900349E-002

     at (x,y,z) coordinates =  -0.61894887452934477       0.47718506847130548       0.61769868129747763

   source time function:
     using (quasi) Heaviside source time function

     half duration:    12.600000000000000       seconds
     time shift:    0.0000000000000000       seconds

   magnitude of the source:
        scalar moment M0 =    5.6942182347535645E+027  dyne-cm
     moment magnitude Mw =    7.8036229292407118


   original (requested) position of the source:

         latitude:    38.321500000000000
        longitude:    142.36920000000001
            depth:    24.399999999999999       km

   position of the source that will be used:

         latitude:    38.321499999999993
        longitude:    142.36920000000001
            depth:    24.399999999999668       km

   Error in location of the source:    7.90811264E-13  km

 source #            2

   source located in slice            3
                  in element         1683

   using moment tensor source:
     xi coordinate of source in that element:  -0.16340696051415154
     eta coordinate of source in that element:   0.95100064673371842
     gamma coordinate of source in that element:  -0.45805616186921061

     at (x,y,z) coordinates =  -0.61627473852103987       0.47880568192448675       0.61780765280122496

   source time function:
     using (quasi) Heaviside source time function

     half duration:    13.000000000000000       seconds
     time shift:    9.0000000000000000       seconds

   magnitude of the source:
        scalar moment M0 =    4.8371335514951416E+027  dyne-cm
     moment magnitude Mw =    7.7563922429124723


   original (requested) position of the source:

         latitude:    38.366500000000002
        longitude:    142.15510000000000
            depth:    29.579999999999998       km

   position of the source that will be used:

         latitude:    38.366500000000009
        longitude:    142.15510000000000
            depth:    29.580000000000211       km

   Error in location of the source:    1.06098463E-12  km

 source #            3

   source located in slice            3
                  in element         1685

   using moment tensor source:
     xi coordinate of source in that element:  -0.10115937133964861
     eta coordinate of source in that element:  -0.74070551131340179
     gamma coordinate of source in that element:   0.57781122438855148

     at (x,y,z) coordinates =  -0.62310473829323954       0.47822012057817614       0.61402077549423539

   source time function:
     using (quasi) Heaviside source time function

     half duration:    14.400000000000000       seconds
     time shift:    9.8000000000000007       seconds

   magnitude of the source:
        scalar moment M0 =    4.1156652755052859E+027  dyne-cm
     moment magnitude Mw =    7.7096268884860510


   original (requested) position of the source:

         latitude:    38.015799999999999
        longitude:    142.49449999999999
            depth:    19.219999999999999       km

   position of the source that will be used:

         latitude:    38.015799999999999
        longitude:    142.49449999999999
            depth:    19.219999999999132       km

   Error in location of the source:    1.06098463E-12  km

 source #            4

   source located in slice            3
                  in element         1683

   using moment tensor source:
     xi coordinate of source in that element:  -0.39128605149283796
     eta coordinate of source in that element:   0.97498381169582582
     gamma coordinate of source in that element:    5.9879209957940070E-002

     at (x,y,z) coordinates =  -0.61745604760601980       0.47450164030283587       0.62124969404774855

   source time function:
     using (quasi) Heaviside source time function

     half duration:    15.199999999999999       seconds
     time shift:    11.600000000000000       seconds

   magnitude of the source:
        scalar moment M0 =    5.8828534186226330E+027  dyne-cm
     moment magnitude Mw =    7.8130588756220423


   original (requested) position of the source:

         latitude:    38.582299999999996
        longitude:    142.45849999999999
            depth:    24.399999999999999       km

   position of the source that will be used:

         latitude:    38.582299999999989
        longitude:    142.45849999999999
            depth:    24.399999999998254       km

   Error in location of the source:    1.62068080E-12  km

 source #            5

   source located in slice            3
                  in element         1683

   using moment tensor source:
     xi coordinate of source in that element:  -0.28174942211055443
     eta coordinate of source in that element:   0.75427085335963129
     gamma coordinate of source in that element:  -0.97499546088085831

     at (x,y,z) coordinates =  -0.61212187835452292       0.47772265248327844       0.62145701245422602

   source time function:
     using (quasi) Heaviside source time function

     half duration:    12.600000000000000       seconds
     time shift:    17.600000000000001       seconds

   magnitude of the source:
        scalar moment M0 =    5.8764563999063233E+027  dyne-cm
     moment magnitude Mw =    7.8127438695833042


   original (requested) position of the source:

         latitude:    38.672300000000000
        longitude:    142.03020000000001
            depth:    34.750000000000000       km

   position of the source that will be used:

         latitude:    38.672300000000000
        longitude:    142.03020000000004
            depth:    34.749999999999815       km

   Error in location of the source:    3.53661544E-13  km

 source #            6

   source located in slice            3
                  in element         1685

   using moment tensor source:
     xi coordinate of source in that element:  -0.27383367350368354
     eta coordinate of source in that element:  -0.82776451585912925
     gamma coordinate of source in that element:   0.57781172134281233

     at (x,y,z) coordinates =  -0.62161890780094897       0.47555241922416530       0.61758832678592068

   source time function:
     using (quasi) Heaviside source time function

     half duration:    13.000000000000000       seconds
     time shift:    17.600000000000001       seconds

   magnitude of the source:
        scalar moment M0 =    4.7064455335210247E+027  dyne-cm
     moment magnitude Mw =    7.7484622154516778


   original (requested) position of the source:

         latitude:    38.276499999999999
        longitude:    142.58320000000001
            depth:    19.219999999999999       km

   position of the source that will be used:

         latitude:    38.276499999999999
        longitude:    142.58320000000001
            depth:    19.219999999999132       km

   Error in location of the source:    7.90811264E-13  km

 source #            7

   source located in slice            3
                  in element           25

   using moment tensor source:
     xi coordinate of source in that element:   -5.4397791131592266E-002
     eta coordinate of source in that element:   0.72946385964690619
     gamma coordinate of source in that element:   0.65200853176430040

     at (x,y,z) coordinates =  -0.61092038166092999       0.48200511039850463       0.61802242518076722

   source time function:
     using (quasi) Heaviside source time function

     half duration:    12.000000000000000       seconds
     time shift:    20.000000000000000       seconds

   magnitude of the source:
        scalar moment M0 =    4.5662960794280514E+027  dyne-cm
     moment magnitude Mw =    7.7397095692659041


   original (requested) position of the source:

         latitude:    38.456499999999998
        longitude:    141.72720000000001
            depth:    39.930000000000000       km

   position of the source that will be used:

         latitude:    38.456499999999991
        longitude:    141.72720000000001
            depth:    39.929999999997527       km

   Error in location of the source:    1.22511951E-12  km

 source #            8

   source located in slice            3
                  in element         1683

   using moment tensor source:
     xi coordinate of source in that element:  -0.10867969503480059
     eta coordinate of source in that element:   0.84021961587044802
     gamma coordinate of source in that element:  -0.97499507990726775

     at (x,y,z) coordinates =  -0.61359835934115026       0.48041393307458341       0.61791621706030597

   source time function:
     using (quasi) Heaviside source time function

     half duration:    13.400000000000000       seconds
     time shift:    22.000000000000000       seconds

   magnitude of the source:
        scalar moment M0 =    4.8139990325092512E+027  dyne-cm
     moment magnitude Mw =    7.7550041898394841


   original (requested) position of the source:

         latitude:    38.411499999999997
        longitude:    141.94100000000000
            depth:    34.750000000000000       km

   position of the source that will be used:

         latitude:    38.411499999999990
        longitude:    141.94100000000000
            depth:    34.749999999998401       km

   Error in location of the source:    7.90811264E-13  km

 source #            9

   source located in slice            3
                  in element           25

   using moment tensor source:
     xi coordinate of source in that element:   0.11900974737143211
     eta coordinate of source in that element:   0.81484609807732733
     gamma coordinate of source in that element:   0.65201113403414634

     at (x,y,z) coordinates =  -0.61237038992396597       0.48469438497494205       0.61447393429132469

   source time function:
     using (quasi) Heaviside source time function

     half duration:    13.600000000000000       seconds
     time shift:    22.600000000000001       seconds

   magnitude of the source:
        scalar moment M0 =    3.8747070876390125E+027  dyne-cm
     moment magnitude Mw =    7.6921594421729358


   original (requested) position of the source:

         latitude:    38.195700000000002
        longitude:    141.63820000000001
            depth:    39.930000000000000       km

   position of the source that will be used:

         latitude:    38.195700000000009
        longitude:    141.63820000000004
            depth:    39.930000000002480       km

   Error in location of the source:    2.26453882E-12  km

 source #           10

   source located in slice            3
                  in element           25

   using moment tensor source:
     xi coordinate of source in that element:  -0.22757584355826718
     eta coordinate of source in that element:   0.64387093753162550
     gamma coordinate of source in that element:   0.65200675315058254

     at (x,y,z) coordinates =  -0.60945166494353387       0.47931048354783229       0.62155811125270122

   source time function:
     using (quasi) Heaviside source time function

     half duration:    15.000000000000000       seconds
     time shift:    26.199999999999999       seconds

   magnitude of the source:
        scalar moment M0 =    4.4159858112317351E+027  dyne-cm
     moment magnitude Mw =    7.7300186369448429


   original (requested) position of the source:

         latitude:    38.717300000000002
        longitude:    141.81630000000001
            depth:    39.930000000000000       km

   position of the source that will be used:

         latitude:    38.717300000000002
        longitude:    141.81630000000001
            depth:    39.929999999998948       km

   Error in location of the source:    3.53661544E-13  km

 source #           11

   source located in slice            3
                  in element         1683

   using moment tensor source:
     xi coordinate of source in that element:  -0.62690182270968586
     eta coordinate of source in that element:   0.58151980650798640
     gamma coordinate of source in that element:  -0.97499165965694123

     at (x,y,z) coordinates =  -0.60910856949511094       0.47233172609966539       0.62849855693691958

   source time function:
     using (quasi) Heaviside source time function

     half duration:    8.0000000000000000       seconds
     time shift:    26.800000000000001       seconds

   magnitude of the source:
        scalar moment M0 =    3.7384981389590116E+027  dyne-cm
     moment magnitude Mw =    7.6817983032608828


   original (requested) position of the source:

         latitude:    39.193800000000003
        longitude:    142.20830000000001
            depth:    34.750000000000000       km

   position of the source that will be used:

         latitude:    39.193799999999996
        longitude:    142.20830000000001
            depth:    34.750000000001229       km

   Error in location of the source:    1.62068080E-12  km

 source #           12

   source located in slice            3
                  in element         1683

   using moment tensor source:
     xi coordinate of source in that element:    6.4512631924548411E-002
     eta coordinate of source in that element:   0.92608283109534528
     gamma coordinate of source in that element:  -0.97499346103039330

     at (x,y,z) coordinates =  -0.61505861383675031       0.48309669719884302       0.61436261904940548

   source time function:
     using (quasi) Heaviside source time function

     half duration:    15.000000000000000       seconds
     time shift:    29.199999999999999       seconds

   magnitude of the source:
        scalar moment M0 =    4.2747608745987181E+027  dyne-cm
     moment magnitude Mw =    7.7206080745949102


   original (requested) position of the source:

         latitude:    38.150700000000001
        longitude:    141.85220000000001
            depth:    34.750000000000000       km

   position of the source that will be used:

         latitude:    38.150700000000001
        longitude:    141.85220000000001
            depth:    34.750000000000526       km

   Error in location of the source:    7.07323089E-13  km

 source #           13

   source located in slice            3
                  in element         1686

   using moment tensor source:
     xi coordinate of source in that element:  -0.21305455076191274
     eta coordinate of source in that element:  -0.51910546660119505
     gamma coordinate of source in that element:  -0.18298525207608488

     at (x,y,z) coordinates =  -0.62844982522674731       0.47490847969117317       0.61378325630741737

   source time function:
     using (quasi) Heaviside source time function

     half duration:    10.400000000000000       seconds
     time shift:    29.399999999999999       seconds

   magnitude of the source:
        scalar moment M0 =    1.3419050935889619E+027  dyne-cm
     moment magnitude Mw =    7.3851480583253863


   original (requested) position of the source:

         latitude:    37.925699999999999
        longitude:    142.92230000000001
            depth:    8.8710000000000004       km

   position of the source that will be used:

         latitude:    37.925699999999999
        longitude:    142.92230000000001
            depth:    8.8709999999982259       km

   Error in location of the source:    1.22511951E-12  km

 source #           14

   source located in slice            3
                  in element         1686

   using moment tensor source:
     xi coordinate of source in that element:   -4.0177207180932914E-002
     eta coordinate of source in that element:  -0.43161012009121330
     gamma coordinate of source in that element:  -0.18298915200826704

     at (x,y,z) coordinates =  -0.62993037818298159       0.47756812173837637       0.61019139651012133

   source time function:
     using (quasi) Heaviside source time function

     half duration:    14.600000000000000       seconds
     time shift:    29.600000000000001       seconds

   magnitude of the source:
        scalar moment M0 =    1.1938906927353107E+027  dyne-cm
     moment magnitude Mw =    7.3513099017769044


   original (requested) position of the source:

         latitude:    37.664900000000003
        longitude:    142.83320000000001
            depth:    8.8710000000000004       km

   position of the source that will be used:

         latitude:    37.664900000000003
        longitude:    142.83320000000001
            depth:    8.8710000000003486       km

   Error in location of the source:    0.00000000      km

 source #           15

   source located in slice            3
                  in element           25

   using moment tensor source:
     xi coordinate of source in that element:  -0.57302957370449414
     eta coordinate of source in that element:   0.47191664246770726
     gamma coordinate of source in that element:   0.65200588274553184

     at (x,y,z) coordinates =  -0.60645566122893435       0.47391055384682385       0.62858943287435243

   source time function:
     using (quasi) Heaviside source time function

     half duration:    9.5999999999999996       seconds
     time shift:    30.399999999999999       seconds

   magnitude of the source:
        scalar moment M0 =    3.6606587050693482E+027  dyne-cm
     moment magnitude Mw =    7.6757063508042043


   original (requested) position of the source:

         latitude:    39.238799999999998
        longitude:    141.99440000000001
            depth:    39.930000000000000       km

   position of the source that will be used:

         latitude:    39.238800000000005
        longitude:    141.99440000000001
            depth:    39.930000000000355       km

   Error in location of the source:    0.00000000      km

 source #           16

   source located in slice            3
                  in element         1685

   using moment tensor source:
     xi coordinate of source in that element:   -4.5525320291616329E-002
     eta coordinate of source in that element:  -0.85169579245229132
     gamma coordinate of source in that element:    5.9879494095416035E-002

     at (x,y,z) coordinates =  -0.62042537274886811       0.47986006032183248       0.61413487043735382

   source time function:
     using (quasi) Heaviside source time function

     half duration:    10.000000000000000       seconds
     time shift:    33.600000000000001       seconds

   magnitude of the source:
        scalar moment M0 =    5.3984173435368996E+027  dyne-cm
     moment magnitude Mw =    7.7881778281831906


   original (requested) position of the source:

         latitude:    38.060699999999997
        longitude:    142.28030000000001
            depth:    24.399999999999999       km

   position of the source that will be used:

         latitude:    38.060699999999997
        longitude:    142.28030000000001
            depth:    24.399999999998965       km

   Error in location of the source:    3.53661544E-13  km

 source #           17

   source located in slice            3
                  in element           25

   using moment tensor source:
     xi coordinate of source in that element:  -0.17353680290792603
     eta coordinate of source in that element:   0.53325497813983846
     gamma coordinate of source in that element:   0.28635895682997048

     at (x,y,z) coordinates =  -0.60677588388514236       0.48089015436894522       0.62165647887161324

   source time function:
     using (quasi) Heaviside source time function

     half duration:    10.000000000000000       seconds
     time shift:    34.000000000000000       seconds

   magnitude of the source:
        scalar moment M0 =    3.4900141274785690E+027  dyne-cm
     moment magnitude Mw =    7.6618849807178808


   original (requested) position of the source:

         latitude:    38.762200000000000
        longitude:    141.60200000000000
            depth:    45.109999999999999       km

   position of the source that will be used:

         latitude:    38.762200000000007
        longitude:    141.60200000000000
            depth:    45.110000000000191       km

   Error in location of the source:    7.90811264E-13  km

 source #           18

   source located in slice            3
                  in element         1686

   using moment tensor source:
     xi coordinate of source in that element:  -0.15696539393150347
     eta coordinate of source in that element:  -0.62988418773559063
     gamma coordinate of source in that element:  -0.87363939180672079

     at (x,y,z) coordinates =  -0.62577811422289809       0.47657020374021308       0.61390296094649877

   source time function:
     using (quasi) Heaviside source time function

     half duration:    11.199999999999999       seconds
     time shift:    37.200000000000003       seconds

   magnitude of the source:
        scalar moment M0 =    2.5801086079465725E+027  dyne-cm
     moment magnitude Mw =    7.5744255158574099


   original (requested) position of the source:

         latitude:    37.970799999999997
        longitude:    142.70840000000001
            depth:    14.050000000000001       km

   position of the source that will be used:

         latitude:    37.970799999999997
        longitude:    142.70840000000001
            depth:    14.050000000000939       km

   Error in location of the source:    1.00030596E-12  km

 source #           19

   source located in slice            3
                  in element         1686

   using moment tensor source:
     xi coordinate of source in that element:  -0.67418131798033143
     eta coordinate of source in that element:  -0.89268247766267328
     gamma coordinate of source in that element:  -0.87363560129779572

     at (x,y,z) coordinates =  -0.62124259375366486       0.46855649963945467       0.62458522168241626

   source time function:
     using (quasi) Heaviside source time function

     half duration:    13.400000000000000       seconds
     time shift:    38.200000000000003       seconds

   magnitude of the source:
        scalar moment M0 =    3.8982846586671935E+027  dyne-cm
     moment magnitude Mw =    7.6939158899230442


   original (requested) position of the source:

         latitude:    38.753100000000003
        longitude:    142.97550000000001
            depth:    14.050000000000001       km

   position of the source that will be used:

         latitude:    38.753100000000032
        longitude:    142.97550000000001
            depth:    14.050000000003060       km

   Error in location of the source:    3.02168555E-12  km

 source #           20

   source located in slice            3
                  in element         1683

   using moment tensor source:
     xi coordinate of source in that element:  -0.45441872314211496
     eta coordinate of source in that element:   0.66802877509348302
     gamma coordinate of source in that element:  -0.97499418030900731

     at (x,y,z) coordinates =  -0.61062501504569522       0.47503006083272453       0.62498358161647949

   source time function:
     using (quasi) Heaviside source time function

     half duration:    11.000000000000000       seconds
     time shift:    39.399999999999999       seconds

   magnitude of the source:
        scalar moment M0 =    3.6079310837376041E+027  dyne-cm
     moment magnitude Mw =    7.6715056796343992


   original (requested) position of the source:

         latitude:    38.933000000000000
        longitude:    142.11920000000001
            depth:    34.750000000000000       km

   position of the source that will be used:

         latitude:    38.933000000000000
        longitude:    142.11920000000001
            depth:    34.750000000001229       km

   Error in location of the source:    1.45818394E-12  km

 source #           21

   source located in slice            3
                  in element         1683

   using moment tensor source:
     xi coordinate of source in that element:  -0.68114483033075879
     eta coordinate of source in that element:   0.69107023537512191
     gamma coordinate of source in that element:  -0.45805414673274664

     at (x,y,z) coordinates =  -0.61175824908434329       0.47073807800111922       0.62840531254850029

   source time function:
     using (quasi) Heaviside source time function

     half duration:    18.199999999999999       seconds
     time shift:    39.600000000000001       seconds

   magnitude of the source:
        scalar moment M0 =    4.5100441023342549E+027  dyne-cm
     moment magnitude Mw =    7.7361207165554635


   original (requested) position of the source:

         latitude:    39.148800000000001
        longitude:    142.42230000000001
            depth:    29.579999999999998       km

   position of the source that will be used:

         latitude:    39.148800000000001
        longitude:    142.42230000000001
            depth:    29.580000000000918       km

   Error in location of the source:    1.00030596E-12  km

 source #           22

   source located in slice            3
                  in element         1685

   using moment tensor source:
     xi coordinate of source in that element:    7.2070068165058301E-002
     eta coordinate of source in that element:  -0.65409142592827030
     gamma coordinate of source in that element:   0.57781144526014760

     at (x,y,z) coordinates =  -0.62456671694697130       0.48089082785164416       0.61043913629294433

   source time function:
     using (quasi) Heaviside source time function

     half duration:    10.800000000000001       seconds
     time shift:    40.200000000000003       seconds

   magnitude of the source:
        scalar moment M0 =    4.2928239836965126E+027  dyne-cm
     moment magnitude Mw =    7.7218289118724890


   original (requested) position of the source:

         latitude:    37.755000000000003
        longitude:    142.40520000000001
            depth:    19.219999999999999       km

   position of the source that will be used:

         latitude:    37.755000000000010
        longitude:    142.40520000000001
            depth:    19.220000000000542       km

   Error in location of the source:    0.00000000      km

 source #           23

   source located in slice            3
                  in element         1685

   using moment tensor source:
     xi coordinate of source in that element:   0.30124104785377825
     eta coordinate of source in that element:  -0.67934683209967961
     gamma coordinate of source in that element:    5.9880582382778796E-002

     at (x,y,z) coordinates =  -0.62331601309266338       0.48519984018138629       0.60697052864202017

   source time function:
     using (quasi) Heaviside source time function

     half duration:    15.800000000000001       seconds
     time shift:    42.399999999999999       seconds

   magnitude of the source:
        scalar moment M0 =    5.2956640357938113E+027  dyne-cm
     moment magnitude Mw =    7.7826138074459568


   original (requested) position of the source:

         latitude:    37.539200000000001
        longitude:    142.10220000000001
            depth:    24.399999999999999       km

   position of the source that will be used:

         latitude:    37.539200000000008
        longitude:    142.10220000000001
            depth:    24.400000000001086       km

   Error in location of the source:    3.53661544E-13  km

 source #           24

   source located in slice            3
                  in element         1683

   using moment tensor source:
     xi coordinate of source in that element:  -0.73575943269090205
     eta coordinate of source in that element:   0.80056781760990092
     gamma coordinate of source in that element:    5.9880991526529107E-002

     at (x,y,z) coordinates =  -0.61440655698456714       0.46913108267464221       0.62831168199599630

   source time function:
     using (quasi) Heaviside source time function

     half duration:    10.800000000000001       seconds
     time shift:    42.600000000000001       seconds

   magnitude of the source:
        scalar moment M0 =    4.8059645384667583E+027  dyne-cm
     moment magnitude Mw =    7.7545205653831637


   original (requested) position of the source:

         latitude:    39.103800000000000
        longitude:    142.63640000000001
            depth:    24.399999999999999       km

   position of the source that will be used:

         latitude:    39.103800000000007
        longitude:    142.63640000000001
            depth:    24.399999999998965       km

   Error in location of the source:    7.90811264E-13  km

 source #           25

   source located in slice            3
                  in element           25

   using moment tensor source:
     xi coordinate of source in that element:   0.17324509262881541
     eta coordinate of source in that element:   0.70342476695794465
     gamma coordinate of source in that element:   0.28636479473474669

     at (x,y,z) coordinates =  -0.60967736711944953       0.48628106098717350       0.61458386677826260

   source time function:
     using (quasi) Heaviside source time function

     half duration:    12.000000000000000       seconds
     time shift:    43.399999999999999       seconds

   magnitude of the source:
        scalar moment M0 =    2.9274343997773889E+027  dyne-cm
     moment magnitude Mw =    7.6109916386318934


   original (requested) position of the source:

         latitude:    38.240699999999997
        longitude:    141.42400000000001
            depth:    45.109999999999999       km

   position of the source that will be used:

         latitude:    38.240699999999990
        longitude:    141.42400000000001
            depth:    45.109999999999481       km

   Error in location of the source:    7.90811264E-13  km

 source #           26

   source located in slice            3
                  in element         1685

   using moment tensor source:
     xi coordinate of source in that element:  -0.44646643181083973
     eta coordinate of source in that element:  -0.91490823196615001
     gamma coordinate of source in that element:   0.57781186421316388

     at (x,y,z) coordinates =  -0.62011669612290832       0.47287457413142164       0.62114445314875744

   source time function:
     using (quasi) Heaviside source time function

     half duration:    13.600000000000000       seconds
     time shift:    43.600000000000001       seconds

   magnitude of the source:
        scalar moment M0 =    4.9249213673925789E+027  dyne-cm
     moment magnitude Mw =    7.7615997246198720


   original (requested) position of the source:

         latitude:    38.537300000000002
        longitude:    142.67240000000001
            depth:    19.219999999999999       km

   position of the source that will be used:

         latitude:    38.537299999999995
        longitude:    142.67240000000001
            depth:    19.220000000000542       km

   Error in location of the source:    1.45818394E-12  km

 source #           27

   source located in slice            3
                  in element           25

   using moment tensor source:
     xi coordinate of source in that element:   0.46662892545223517
     eta coordinate of source in that element:   0.98473735374396310
     gamma coordinate of source in that element:   0.65201534434001918

     at (x,y,z) coordinates =  -0.61520918017589699       0.49006111558401244       0.60734020517761012

   source time function:
     using (quasi) Heaviside source time function

     half duration:    13.800000000000001       seconds
     time shift:    43.600000000000001       seconds

   magnitude of the source:
        scalar moment M0 =    1.4992676112022163E+027  dyne-cm
     moment magnitude Mw =    7.4172529633988011


   original (requested) position of the source:

         latitude:    37.674199999999999
        longitude:    141.46000000000001
            depth:    39.930000000000000       km

   position of the source that will be used:

         latitude:    37.674200000000006
        longitude:    141.46000000000004
            depth:    39.929999999998948       km

   Error in location of the source:    1.73258066E-12  km

 source #           28

   source located in slice            3
                  in element         1685

   using moment tensor source:
     xi coordinate of source in that element:   0.12771426768175870
     eta coordinate of source in that element:  -0.76544735599735569
     gamma coordinate of source in that element:    5.9879964061520713E-002

     at (x,y,z) coordinates =  -0.62187968927563586       0.48253233405923324       0.61055970910594581

   source time function:
     using (quasi) Heaviside source time function

     half duration:    13.600000000000000       seconds
     time shift:    44.799999999999997       seconds

   magnitude of the source:
        scalar moment M0 =    5.8506242350709895E+027  dyne-cm
     moment magnitude Mw =    7.8114683279387727


   original (requested) position of the source:

         latitude:    37.799999999999997
        longitude:    142.19120000000001
            depth:    24.399999999999999       km

   position of the source that will be used:

         latitude:    37.799999999999997
        longitude:    142.19120000000001
            depth:    24.399999999998965       km

   Error in location of the source:    1.06098463E-12  km

 source #           29

   source located in slice            3
                  in element         1686

   using moment tensor source:
     xi coordinate of source in that element:  -0.50205791771912278
     eta coordinate of source in that element:  -0.80480457222258939
     gamma coordinate of source in that element:  -0.87363529490152392

     at (x,y,z) coordinates =  -0.62277470546175484       0.47123152063557822       0.62103685316472002

   source time function:
     using (quasi) Heaviside source time function

     half duration:    9.4000000000000004       seconds
     time shift:    45.000000000000000       seconds

   magnitude of the source:
        scalar moment M0 =    3.5536160252621552E+027  dyne-cm
     moment magnitude Mw =    7.6671138571935122


   original (requested) position of the source:

         latitude:    38.492300000000000
        longitude:    142.88650000000001
            depth:    14.050000000000001       km

   position of the source that will be used:

         latitude:    38.492299999999993
        longitude:    142.88650000000001
            depth:    14.050000000001644       km

   Error in location of the source:    1.76830772E-12  km

 source #           30

   source located in slice            3
                  in element         1686

   using moment tensor source:
     xi coordinate of source in that element:    1.6141766711205270E-002
     eta coordinate of source in that element:  -0.54278077420066495
     gamma coordinate of source in that element:  -0.87363990457310314

     at (x,y,z) coordinates =  -0.62725024027131893       0.47923604383234913       0.61031483937696041

   source time function:
     using (quasi) Heaviside source time function

     half duration:    13.400000000000000       seconds
     time shift:    45.000000000000000       seconds

   magnitude of the source:
        scalar moment M0 =    2.5327775099680583E+027  dyne-cm
     moment magnitude Mw =    7.5690648848531428


   original (requested) position of the source:

         latitude:    37.709899999999998
        longitude:    142.61920000000001
            depth:    14.050000000000001       km

   position of the source that will be used:

         latitude:    37.709899999999998
        longitude:    142.61920000000001
            depth:    14.049999999999523       km

   Error in location of the source:    1.00030596E-12  km

 source #           31

   source located in slice            3
                  in element           25

   using moment tensor source:
     xi coordinate of source in that element:  -0.40044777106627494
     eta coordinate of source in that element:   0.55797971077848041
     gamma coordinate of source in that element:   0.65200598431792567

     at (x,y,z) coordinates =  -0.60796257570174050       0.47661274441576384       0.62508091925118459

   source time function:
     using (quasi) Heaviside source time function

     half duration:    16.199999999999999       seconds
     time shift:    45.799999999999997       seconds

   magnitude of the source:
        scalar moment M0 =    3.5437161158873885E+027  dyne-cm
     moment magnitude Mw =    7.6663061398304668


   original (requested) position of the source:

         latitude:    38.978099999999998
        longitude:    141.90530000000001
            depth:    39.930000000000000       km

   position of the source that will be used:

         latitude:    38.978099999999991
        longitude:    141.90530000000001
            depth:    39.930000000001776       km

   Error in location of the source:    1.90452580E-12  km

 source #           32

   source located in slice            3
                  in element           25

   using moment tensor source:
     xi coordinate of source in that element:   0.29262584612302156
     eta coordinate of source in that element:   0.89993289264581955
     gamma coordinate of source in that element:   0.65201382902691896

     at (x,y,z) coordinates =  -0.61380000510541555       0.48737859796305766       0.61091408003538750

   source time function:
     using (quasi) Heaviside source time function

     half duration:    17.199999999999999       seconds
     time shift:    46.399999999999999       seconds

   magnitude of the source:
        scalar moment M0 =    3.0875819179416118E+027  dyne-cm
     moment magnitude Mw =    7.6264125166489567


   original (requested) position of the source:

         latitude:    37.935000000000002
        longitude:    141.54920000000001
            depth:    39.930000000000000       km

   position of the source that will be used:

         latitude:    37.935000000000024
        longitude:    141.54920000000001
            depth:    39.929999999998948       km

   Error in location of the source:    2.23675202E-12  km

 source #           33

   source located in slice            3
                  in element         1686

   using moment tensor source:
     xi coordinate of source in that element:   0.13302011331735464
     eta coordinate of source in that element:  -0.34439606907192671
     gamma coordinate of source in that element:  -0.18299081134085973

     at (x,y,z) coordinates =  -0.63139029931243651       0.48022469992416650       0.60658689414653788

   source time function:
     using (quasi) Heaviside source time function

     half duration:    14.199999999999999       seconds
     time shift:    47.000000000000000       seconds

   magnitude of the source:
        scalar moment M0 =    1.5507377631308272E+027  dyne-cm
     moment magnitude Mw =    7.4270257659571772


   original (requested) position of the source:

         latitude:    37.404100000000000
        longitude:    142.74400000000000
            depth:    8.8710000000000004       km

   position of the source that will be used:

         latitude:    37.404099999999993
        longitude:    142.74400000000000
            depth:    8.8709999999996416       km

   Error in location of the source:    0.00000000      km

 source #           34

   source located in slice            3
                  in element         1685

   using moment tensor source:
     xi coordinate of source in that element:   0.35668224834435264
     eta coordinate of source in that element:  -0.79119827346450577
     gamma coordinate of source in that element:  -0.45805291289244543

     at (x,y,z) coordinates =  -0.62061722006801467       0.48683249170150011       0.60709482078244215

   source time function:
     using (quasi) Heaviside source time function

     half duration:    13.000000000000000       seconds
     time shift:    47.399999999999999       seconds

   magnitude of the source:
        scalar moment M0 =    5.1511450120337332E+027  dyne-cm
     moment magnitude Mw =    7.7746027081068227


   original (requested) position of the source:

         latitude:    37.584200000000003
        longitude:    141.88820000000001
            depth:    29.579999999999998       km

   position of the source that will be used:

         latitude:    37.584200000000003
        longitude:    141.88820000000001
            depth:    29.580000000002332       km

   Error in location of the source:    2.03163094E-12  km

 source #           35

   source located in slice            3
                  in element         1683

   using moment tensor source:
     xi coordinate of source in that element:  -0.90781218412287534
     eta coordinate of source in that element:   0.71307603609586201
     gamma coordinate of source in that element:    5.9875622063071440E-002

     at (x,y,z) coordinates =  -0.61285476005491291       0.46643424807502415       0.63182520923944741

   source time function:
     using (quasi) Heaviside source time function

     half duration:    12.000000000000000       seconds
     time shift:    47.600000000000001       seconds

   magnitude of the source:
        scalar moment M0 =    2.9898664114053654E+027  dyne-cm
     moment magnitude Mw =    7.6171013802564804


   original (requested) position of the source:

         latitude:    39.364699999999999
        longitude:    142.72579999999999
            depth:    24.399999999999999       km

   position of the source that will be used:

         latitude:    39.364700000000006
        longitude:    142.72579999999999
            depth:    24.400000000000379       km

   Error in location of the source:    7.90811264E-13  km

 source #           36

   source located in slice            3
                  in element         1683

   using moment tensor source:
     xi coordinate of source in that element:  -0.56374677514144589
     eta coordinate of source in that element:   0.88794486351455160
     gamma coordinate of source in that element:    5.9881744616879187E-002

     at (x,y,z) coordinates =  -0.61594190964241957       0.47181636763525137       0.62478783511467051

   source time function:
     using (quasi) Heaviside source time function

     half duration:    15.600000000000000       seconds
     time shift:    48.000000000000000       seconds

   magnitude of the source:
        scalar moment M0 =    5.6038152043942343E+027  dyne-cm
     moment magnitude Mw =    7.7989893942214499


   original (requested) position of the source:

         latitude:    38.843100000000000
        longitude:    142.54759999999999
            depth:    24.399999999999999       km

   position of the source that will be used:

         latitude:    38.843100000000000
        longitude:    142.54759999999999
            depth:    24.399999999999668       km

   Error in location of the source:    7.90811264E-13  km

 source #           37

   source located in slice            3
                  in element         1686

   using moment tensor source:
     xi coordinate of source in that element:   0.71079049161260155
     eta coordinate of source in that element:  -0.19665630665181233
     gamma coordinate of source in that element:  -0.87363019446689549

     at (x,y,z) coordinates =  -0.63294269107758616       0.48984516101501546       0.59584353720911476

   source time function:
     using (quasi) Heaviside source time function

     half duration:    10.000000000000000       seconds
     time shift:    49.399999999999999       seconds

   magnitude of the source:
        scalar moment M0 =    2.2431094322390957E+027  dyne-cm
     moment magnitude Mw =    7.5339004984491913


   original (requested) position of the source:

         latitude:    36.666800000000002
        longitude:    142.26310000000001
            depth:    14.050000000000001       km

   position of the source that will be used:

         latitude:    36.666800000000002
        longitude:    142.26309999999998
            depth:    14.050000000001644       km

   Error in location of the source:    1.22511951E-12  km

 source #           38

   source located in slice            3
                  in element         1685

   using moment tensor source:
     xi coordinate of source in that element:    9.7173857950136836E-003
     eta coordinate of source in that element:  -0.96282378789666234
     gamma coordinate of source in that element:  -0.45805623218181579

     at (x,y,z) coordinates =  -0.61774186069578774       0.48148618766407170       0.61424895187125206

   source time function:
     using (quasi) Heaviside source time function

     half duration:    11.800000000000001       seconds
     time shift:    50.000000000000000       seconds

   magnitude of the source:
        scalar moment M0 =    4.8783347691604767E+027  dyne-cm
     moment magnitude Mw =    7.7588479239847903


   original (requested) position of the source:

         latitude:    38.105699999999999
        longitude:    142.06610000000001
            depth:    29.579999999999998       km

   position of the source that will be used:

         latitude:    38.105700000000006
        longitude:    142.06610000000001
            depth:    29.580000000001625       km

   Error in location of the source:    1.06098463E-12  km

 source #           39

   source located in slice            3
                  in element         1686

   using moment tensor source:
     xi coordinate of source in that element:   0.36287734687046924
     eta coordinate of source in that element:  -0.36926053675334619
     gamma coordinate of source in that element:  -0.87363514811538989

     at (x,y,z) coordinates =  -0.63013601956888077       0.48454862214574734       0.60310486850196965

   source time function:
     using (quasi) Heaviside source time function

     half duration:    11.800000000000001       seconds
     time shift:    50.799999999999997       seconds

   magnitude of the source:
        scalar moment M0 =    3.7503414704530573E+027  dyne-cm
     moment magnitude Mw =    7.6827140655723571


   original (requested) position of the source:

         latitude:    37.188400000000001
        longitude:    142.44120000000001
            depth:    14.050000000000001       km

   position of the source that will be used:

         latitude:    37.188400000000009
        longitude:    142.44120000000001
            depth:    14.050000000000232       km

   Error in location of the source:    1.58162253E-12  km

 source #           40

   source located in slice            3
                  in element         1686

   using moment tensor source:
     xi coordinate of source in that element:  -0.32968349114340317
     eta coordinate of source in that element:  -0.71713506940757854
     gamma coordinate of source in that element:  -0.87363736083540278

     at (x,y,z) coordinates =  -0.62428793926479120       0.47390155478741869       0.61747561737352952

   source time function:
     using (quasi) Heaviside source time function

     half duration:    12.600000000000000       seconds
     time shift:    50.799999999999997       seconds

   magnitude of the source:
        scalar moment M0 =    3.1182249926841397E+027  dyne-cm
     moment magnitude Mw =    7.6292718228056362


   original (requested) position of the source:

         latitude:    38.231499999999997
        longitude:    142.79759999999999
            depth:    14.050000000000001       km

   position of the source that will be used:

         latitude:    38.231499999999997
        longitude:    142.79759999999999
            depth:    14.049999999998109       km

   Error in location of the source:    1.90452580E-12  km

 source #           41

   source located in slice            3
                  in element         1686

   using moment tensor source:
     xi coordinate of source in that element:  -0.84592282975323840
     eta coordinate of source in that element:  -0.98080740547800394
     gamma coordinate of source in that element:  -0.87364159178571055

     at (x,y,z) coordinates =  -0.61969085629114451       0.46587943188276443       0.62811929628851138

   source time function:
     using (quasi) Heaviside source time function

     half duration:    14.000000000000000       seconds
     time shift:    51.200000000000003       seconds

   magnitude of the source:
        scalar moment M0 =    3.3958269184397485E+027  dyne-cm
     moment magnitude Mw =    7.6539638884843901


   original (requested) position of the source:

         latitude:    39.013800000000003
        longitude:    143.06440000000001
            depth:    14.050000000000001       km

   position of the source that will be used:

         latitude:    39.013799999999975
        longitude:    143.06440000000003
            depth:    14.049999999998109       km

   Error in location of the source:    3.67535863E-12  km

 source #           42

   source located in slice            3
                  in element         1683

   using moment tensor source:
     xi coordinate of source in that element:  -0.85315462629829031
     eta coordinate of source in that element:   0.60385770895318647
     gamma coordinate of source in that element:  -0.45805666168557291

     at (x,y,z) coordinates =  -0.61021275021690780       0.46804153358299522       0.63191237727718508

   source time function:
     using (quasi) Heaviside source time function

     half duration:    16.199999999999999       seconds
     time shift:    51.200000000000003       seconds

   magnitude of the source:
        scalar moment M0 =    2.8951873339575108E+027  dyne-cm
     moment magnitude Mw =    7.6077846374857021


   original (requested) position of the source:

         latitude:    39.409599999999998
        longitude:    142.51130000000001
            depth:    29.579999999999998       km

   position of the source that will be used:

         latitude:    39.409599999999998
        longitude:    142.51130000000001
            depth:    29.580000000000211       km

   Error in location of the source:    7.90811264E-13  km

 source #           43

   source located in slice            3
                  in element         1686

   using moment tensor source:
     xi coordinate of source in that element:  -0.38572123993261992
     eta coordinate of source in that element:  -0.60676102068284032
     gamma coordinate of source in that element:  -0.18297992769331189

     at (x,y,z) coordinates =  -0.62695114134451091       0.47224259354145987       0.61736239911861923

   source time function:
     using (quasi) Heaviside source time function

     half duration:    14.800000000000001       seconds
     time shift:    51.399999999999999       seconds

   magnitude of the source:
        scalar moment M0 =    1.3151767771672369E+027  dyne-cm
     moment magnitude Mw =    7.3793229451856837


   original (requested) position of the source:

         latitude:    38.186500000000002
        longitude:    143.01159999999999
            depth:    8.8710000000000004       km

   position of the source that will be used:

         latitude:    38.186500000000002
        longitude:    143.01159999999999
            depth:    8.8710000000010574       km

   Error in location of the source:    1.06098463E-12  km

 source #           44

   source located in slice            3
                  in element         1686

   using moment tensor source:
     xi coordinate of source in that element:  -0.90154716402174562
     eta coordinate of source in that element:  -0.87159190001489428
     gamma coordinate of source in that element:  -0.18297798438385202

     at (x,y,z) coordinates =  -0.62232923150992925       0.46423328543478060       0.62802143031598645

   source time function:
     using (quasi) Heaviside source time function

     half duration:    14.400000000000000       seconds
     time shift:    53.399999999999999       seconds

   magnitude of the source:
        scalar moment M0 =    1.6432564866143084E+027  dyne-cm
     moment magnitude Mw =    7.4438037609322469


   original (requested) position of the source:

         latitude:    38.968800000000002
        longitude:    143.27850000000001
            depth:    8.8710000000000004       km

   position of the source that will be used:

         latitude:    38.968800000000002
        longitude:    143.27850000000001
            depth:    8.8709999999996416       km

   Error in location of the source:    0.00000000      km

 source #           45

   source located in slice            3
                  in element         1686

   using moment tensor source:
     xi coordinate of source in that element:  -0.55794908102908103
     eta coordinate of source in that element:  -0.69482966064786589
     gamma coordinate of source in that element:  -0.18297496494184440

     at (x,y,z) coordinates =  -0.62542939622682170       0.46957713893927305       0.62092875078740473

   source time function:
     using (quasi) Heaviside source time function

     half duration:    14.199999999999999       seconds
     time shift:    54.000000000000000       seconds

   magnitude of the source:
        scalar moment M0 =    1.8915561160060782E+027  dyne-cm
     moment magnitude Mw =    7.4845463439702433


   original (requested) position of the source:

         latitude:    38.447299999999998
        longitude:    143.10050000000001
            depth:    8.8710000000000004       km

   position of the source that will be used:

         latitude:    38.447299999999998
        longitude:    143.10050000000001
            depth:    8.8709999999996416       km

   Error in location of the source:    0.00000000      km

 source #           46

   source located in slice            3
                  in element         1685

   using moment tensor source:
     xi coordinate of source in that element:   0.47510980857161156
     eta coordinate of source in that element:  -0.59356461576385311
     gamma coordinate of source in that element:    5.9880823688536033E-002

     at (x,y,z) coordinates =  -0.62473094321938971       0.48786507650457905       0.60336877234502517

   source time function:
     using (quasi) Heaviside source time function

     half duration:    8.5999999999999996       seconds
     time shift:    54.200000000000003       seconds

   magnitude of the source:
        scalar moment M0 =    4.2595761068444360E+027  dyne-cm
     moment magnitude Mw =    7.7195777789288220


   original (requested) position of the source:

         latitude:    37.278399999999998
        longitude:    142.01300000000001
            depth:    24.399999999999999       km

   position of the source that will be used:

         latitude:    37.278400000000005
        longitude:    142.01300000000001
            depth:    24.399999999999668       km

   Error in location of the source:    7.07323089E-13  km

 source #           47

   source located in slice            3
                  in element         1683

   using moment tensor source:
     xi coordinate of source in that element:  -0.33636825002049398
     eta coordinate of source in that element:   0.86469734518592856
     gamma coordinate of source in that element:  -0.45805465961541242

     at (x,y,z) coordinates =  -0.61479049368973127       0.47611778042131520       0.62135355336356191

   source time function:
     using (quasi) Heaviside source time function

     half duration:    12.199999999999999       seconds
     time shift:    54.200000000000003       seconds

   magnitude of the source:
        scalar moment M0 =    6.0315283614520129E+027  dyne-cm
     moment magnitude Mw =    7.8202851069367689


   original (requested) position of the source:

         latitude:    38.627299999999998
        longitude:    142.24440000000001
            depth:    29.579999999999998       km

   position of the source that will be used:

         latitude:    38.627299999999984
        longitude:    142.24440000000001
            depth:    29.579999999999504       km

   Error in location of the source:    7.90811264E-13  km

 source #           48

   source located in slice            3
                  in element         1683

   using moment tensor source:
     xi coordinate of source in that element:  -0.79067296008153587
     eta coordinate of source in that element:   0.90992867918100728
     gamma coordinate of source in that element:   0.57781188099863634

     at (x,y,z) coordinates =  -0.61705083073383471       0.46751213423940702       0.62821667279485127

   source time function:
     using (quasi) Heaviside source time function

     half duration:    14.000000000000000       seconds
     time shift:    55.399999999999999       seconds

   magnitude of the source:
        scalar moment M0 =    4.2329251895113852E+027  dyne-cm
     moment magnitude Mw =    7.7177605861015826


   original (requested) position of the source:

         latitude:    39.058799999999998
        longitude:    142.85040000000001
            depth:    19.219999999999999       km

   position of the source that will be used:

         latitude:    39.058800000000012
        longitude:    142.85040000000001
            depth:    19.219999999999132       km

   Error in location of the source:    1.00030596E-12  km

 source #           49

   source located in slice            3
                  in element         1683

   using moment tensor source:
     xi coordinate of source in that element:  -0.97109753259351572
     eta coordinate of source in that element:   0.40778384234074155
     gamma coordinate of source in that element:  -0.97498880490343542

     at (x,y,z) coordinates =  -0.60601868791190050       0.46692135982633626       0.63548936940276568

   source time function:
     using (quasi) Heaviside source time function

     half duration:    10.199999999999999       seconds
     time shift:    56.000000000000000       seconds

   magnitude of the source:
        scalar moment M0 =    5.9519401399879685E+026  dyne-cm
     moment magnitude Mw =    7.1497725605759772


   original (requested) position of the source:

         latitude:    39.715400000000002
        longitude:    142.38669999999999
            depth:    34.750000000000000       km

   position of the source that will be used:

         latitude:    39.715400000000010
        longitude:    142.38669999999999
            depth:    34.749999999997691       km

   Error in location of the source:    2.57469501E-12  km

 source #           50

   source located in slice            3
                  in element         1685

   using moment tensor source:
     xi coordinate of source in that element:   0.23799100413794461
     eta coordinate of source in that element:  -0.98843359924274654
     gamma coordinate of source in that element:  -0.97499125147851096

     at (x,y,z) coordinates =  -0.61649676025657341       0.48577660066333356       0.61079766193526497

   source time function:
     using (quasi) Heaviside source time function

     half duration:    12.000000000000000       seconds
     time shift:    56.200000000000003       seconds

   magnitude of the source:
        scalar moment M0 =    3.8102285344845135E+027  dyne-cm
     moment magnitude Mw =    7.6873008741317284


   original (requested) position of the source:

         latitude:    37.890000000000001
        longitude:    141.76320000000001
            depth:    34.750000000000000       km

   position of the source that will be used:

         latitude:    37.890000000000022
        longitude:    141.76320000000001
            depth:    34.749999999997691       km

   Error in location of the source:    2.85131055E-12  km

 source #           51

   source located in slice            3
                  in element         1685

   using moment tensor source:
     xi coordinate of source in that element:   0.59313134291373393
     eta coordinate of source in that element:  -0.39536841010954327
     gamma coordinate of source in that element:   0.57781589556825930

     at (x,y,z) coordinates =  -0.62884012503722009       0.48886921184177995       0.59961863063467602

   source time function:
     using (quasi) Heaviside source time function

     half duration:    11.000000000000000       seconds
     time shift:    56.600000000000001       seconds

   magnitude of the source:
        scalar moment M0 =    3.3562356725951179E+027  dyne-cm
     moment magnitude Mw =    7.6505684901293298


   original (requested) position of the source:

         latitude:    36.972600000000000
        longitude:    142.13800000000001
            depth:    19.219999999999999       km

   position of the source that will be used:

         latitude:    36.972600000000000
        longitude:    142.13800000000001
            depth:    19.219999999999835       km

   Error in location of the source:    7.90811264E-13  km

 source #           52

   source located in slice            3
                  in element         1683

   using moment tensor source:
     xi coordinate of source in that element:  -0.50894177456342315
     eta coordinate of source in that element:   0.77801135707216340
     gamma coordinate of source in that element:  -0.45805386453692915

     at (x,y,z) coordinates =  -0.61328414062465242       0.47342903916316181       0.62488658009068754

   source time function:
     using (quasi) Heaviside source time function

     half duration:    12.600000000000000       seconds
     time shift:    57.200000000000003       seconds

   magnitude of the source:
        scalar moment M0 =    5.1289094757072873E+027  dyne-cm
     moment magnitude Mw =    7.7733502133462231


   original (requested) position of the source:

         latitude:    38.888100000000001
        longitude:    142.33340000000001
            depth:    29.579999999999998       km

   position of the source that will be used:

         latitude:    38.888100000000001
        longitude:    142.33340000000001
            depth:    29.579999999998797       km

   Error in location of the source:    1.06098463E-12  km

 source #           53

   source located in slice            3
                  in element         1686

   using moment tensor source:
     xi coordinate of source in that element:   0.18930769606822759
     eta coordinate of source in that element:  -0.45588525200834928
     gamma coordinate of source in that element:  -0.87363835771546516

     at (x,y,z) coordinates =  -0.62870342896961795       0.48189308120378765       0.60671682808539007

   source time function:
     using (quasi) Heaviside source time function

     half duration:    18.600000000000001       seconds
     time shift:    57.200000000000003       seconds

   magnitude of the source:
        scalar moment M0 =    3.2894683225408930E+027  dyne-cm
     moment magnitude Mw =    7.6447506630771507


   original (requested) position of the source:

         latitude:    37.449199999999998
        longitude:    142.53030000000001
            depth:    14.050000000000001       km

   position of the source that will be used:

         latitude:    37.449199999999998
        longitude:    142.53030000000001
            depth:    14.050000000002353       km

   Error in location of the source:    2.47563081E-12  km

 source #           54

   source located in slice            3
                  in element         1651

   using moment tensor source:
     xi coordinate of source in that element:   0.97488623272649988
     eta coordinate of source in that element:   0.51653233023736234
     gamma coordinate of source in that element:  -0.45806051722456093

     at (x,y,z) coordinates =  -0.60865087740087565       0.46533526784146201       0.63540768659512359

   source time function:
     using (quasi) Heaviside source time function

     half duration:    10.400000000000000       seconds
     time shift:    57.799999999999997       seconds

   magnitude of the source:
        scalar moment M0 =    1.0124739256148772E+027  dyne-cm
     moment magnitude Mw =    7.3035894224569367


   original (requested) position of the source:

         latitude:    39.670499999999997
        longitude:    142.60079999999999
            depth:    29.579999999999998       km

   position of the source that will be used:

         latitude:    39.670500000000004
        longitude:    142.60079999999999
            depth:    29.580000000000211       km

   Error in location of the source:    7.07323089E-13  km

 source #           55

   source located in slice            3
                  in element         1686

   using moment tensor source:
     xi coordinate of source in that element:   0.53675643920453053
     eta coordinate of source in that element:  -0.28290896828722994
     gamma coordinate of source in that element:  -0.87363164426167172

     at (x,y,z) coordinates =  -0.63154797558812836       0.48720082259630121       0.59948041317815948

   source time function:
     using (quasi) Heaviside source time function

     half duration:    13.199999999999999       seconds
     time shift:    58.399999999999999       seconds

   magnitude of the source:
        scalar moment M0 =    3.5793386127886815E+027  dyne-cm
     moment magnitude Mw =    7.6692020477242000


   original (requested) position of the source:

         latitude:    36.927599999999998
        longitude:    142.35200000000000
            depth:    14.050000000000001       km

   position of the source that will be used:

         latitude:    36.927599999999991
        longitude:    142.35199999999998
            depth:    14.050000000002353       km

   Error in location of the source:    3.00091766E-12  km

 source #           56

   source located in slice            3
                  in element         1683

   using moment tensor source:
     xi coordinate of source in that element:  -0.79914139546135299
     eta coordinate of source in that element:   0.49478663819634616
     gamma coordinate of source in that element:  -0.97498916630932297

     at (x,y,z) coordinates =  -0.60757339809872657       0.46962843374386326       0.63200051038469363

   source time function:
     using (quasi) Heaviside source time function

     half duration:    14.800000000000001       seconds
     time shift:    59.200000000000003       seconds

   magnitude of the source:
        scalar moment M0 =    2.1606791444358422E+027  dyne-cm
     moment magnitude Mw =    7.5230603774039784


   original (requested) position of the source:

         latitude:    39.454599999999999
        longitude:    142.29750000000001
            depth:    34.750000000000000       km

   position of the source that will be used:

         latitude:    39.454600000000006
        longitude:    142.29750000000004
            depth:    34.749999999998401       km

   Error in location of the source:    2.64656070E-12  km

 source #           57

   source located in slice            3
                  in element         1685

   using moment tensor source:
     xi coordinate of source in that element:   0.41186059557131943
     eta coordinate of source in that element:  -0.90322710903775794
     gamma coordinate of source in that element:  -0.97498701882819672

     at (x,y,z) coordinates =  -0.61791443844424188       0.48845487071984345       0.60721868467353590

   source time function:
     using (quasi) Heaviside source time function

     half duration:    12.000000000000000       seconds
     time shift:    59.799999999999997       seconds

   magnitude of the source:
        scalar moment M0 =    3.1751684750576619E+027  dyne-cm
     moment magnitude Mw =    7.6345113733943029


   original (requested) position of the source:

         latitude:    37.629199999999997
        longitude:    141.67400000000001
            depth:    34.750000000000000       km

   position of the source that will be used:

         latitude:    37.629200000000004
        longitude:    141.67399999999998
            depth:    34.749999999999112       km

   Error in location of the source:    1.73258066E-12  km

 source #           58

   source located in slice            3
                  in element           25

   using moment tensor source:
     xi coordinate of source in that element:  -0.51934604759515468
     eta coordinate of source in that element:   0.36205601802921139
     gamma coordinate of source in that element:   0.28635621656316301

     at (x,y,z) coordinates =  -0.60379640848867855       0.47548058766604073       0.62867893189255619

   source time function:
     using (quasi) Heaviside source time function

     half duration:    16.199999999999999       seconds
     time shift:    59.799999999999997       seconds

   magnitude of the source:
        scalar moment M0 =    3.6035314942428348E+027  dyne-cm
     moment magnitude Mw =    7.6711524054487334


   original (requested) position of the source:

         latitude:    39.283799999999999
        longitude:    141.78010000000000
            depth:    45.109999999999999       km

   position of the source that will be used:

         latitude:    39.283799999999999
        longitude:    141.78010000000000
            depth:    45.110000000001605       km

   Error in location of the source:    1.06098463E-12  km

 source #           59

   source located in slice            3
                  in element         1685

   using moment tensor source:
     xi coordinate of source in that element:   0.64920515391998745
     eta coordinate of source in that element:  -0.50796995766801678
     gamma coordinate of source in that element:    5.9879388492567305E-002

     at (x,y,z) coordinates =  -0.62612700824700129       0.49052466931100419       0.59975451483981279

   source time function:
     using (quasi) Heaviside source time function

     half duration:    11.800000000000001       seconds
     time shift:    60.000000000000000       seconds

   magnitude of the source:
        scalar moment M0 =    2.3487114275704456E+027  dyne-cm
     moment magnitude Mw =    7.5472199646239293


   original (requested) position of the source:

         latitude:    37.017600000000002
        longitude:    141.92390000000000
            depth:    24.399999999999999       km

   position of the source that will be used:

         latitude:    37.017599999999995
        longitude:    141.92390000000000
            depth:    24.400000000000379       km

   Error in location of the source:    7.90811264E-13  km

 source #           60

   source located in slice            3
                  in element           25

   using moment tensor source:
     xi coordinate of source in that element:  -0.12012190094783740
     eta coordinate of source in that element:   0.42265943882423562
     gamma coordinate of source in that element:   -7.8584181249474819E-002

     at (x,y,z) coordinates =  -0.60410054626962717       0.48245086243062035       0.62175715341476334

   source time function:
     using (quasi) Heaviside source time function

     half duration:    11.600000000000000       seconds
     time shift:    60.799999999999997       seconds

   magnitude of the source:
        scalar moment M0 =    2.3590102712790378E+027  dyne-cm
     moment magnitude Mw =    7.5484867452916564


   original (requested) position of the source:

         latitude:    38.807299999999998
        longitude:    141.38820000000001
            depth:    50.280000000000001       km

   position of the source that will be used:

         latitude:    38.807299999999998
        longitude:    141.38820000000001
            depth:    50.280000000000499       km

   Error in location of the source:    1.22511951E-12  km

 source #           61

   source located in slice            3
                  in element           25

   using moment tensor source:
     xi coordinate of source in that element:   -3.0400683544978851E-004
     eta coordinate of source in that element:   0.61844234646895213
     gamma coordinate of source in that element:   0.28636151109815777

     at (x,y,z) coordinates =  -0.60823595506269346       0.48358744287562250       0.61812725196243035

   source time function:
     using (quasi) Heaviside source time function

     half duration:    15.400000000000000       seconds
     time shift:    61.200000000000003       seconds

   magnitude of the source:
        scalar moment M0 =    3.4183754262807361E+027  dyne-cm
     moment magnitude Mw =    7.6558800292695626


   original (requested) position of the source:

         latitude:    38.501500000000000
        longitude:    141.51300000000001
            depth:    45.109999999999999       km

   position of the source that will be used:

         latitude:    38.501499999999993
        longitude:    141.51300000000001
            depth:    45.110000000000902       km

   Error in location of the source:    7.07323089E-13  km

 source #           62

   source located in slice            3
                  in element         1683

   using moment tensor source:
     xi coordinate of source in that element:  -0.61868684558701659
     eta coordinate of source in that element:   0.99766311935133922
     gamma coordinate of source in that element:   0.57781008017871949

     at (x,y,z) coordinates =  -0.61859402186718426       0.47019560476674349       0.62468635387372751

   source time function:
     using (quasi) Heaviside source time function

     half duration:    16.800000000000001       seconds
     time shift:    61.600000000000001       seconds

   magnitude of the source:
        scalar moment M0 =    5.1406494458385315E+027  dyne-cm
     moment magnitude Mw =    7.7740121835445173


   original (requested) position of the source:

         latitude:    38.798000000000002
        longitude:    142.76140000000001
            depth:    19.219999999999999       km

   position of the source that will be used:

         latitude:    38.797999999999995
        longitude:    142.76140000000001
            depth:    19.219999999999132       km

   Error in location of the source:    0.00000000      km

 source #           63

   source located in slice            3
                  in element           25

   using moment tensor source:
     xi coordinate of source in that element:   0.57528841723509427
     eta coordinate of source in that element:   0.76032666897010293
     gamma coordinate of source in that element:   -7.8571979084733526E-002

     at (x,y,z) coordinates =  -0.60978938442604302       0.49323758328135020       0.60757868261306025

   source time function:
     using (quasi) Heaviside source time function

     half duration:    9.8000000000000007       seconds
     time shift:    61.799999999999997       seconds

   magnitude of the source:
        scalar moment M0 =    1.9623570394362491E+027  dyne-cm
     moment magnitude Mw =    7.4951855424583291


   original (requested) position of the source:

         latitude:    37.764099999999999
        longitude:    141.03180000000000
            depth:    50.280000000000001       km

   position of the source that will be used:

         latitude:    37.764099999999992
        longitude:    141.03180000000000
            depth:    50.279999999999795       km

   Error in location of the source:    7.90811264E-13  km

 source #           64

   source located in slice            3
                  in element         1683

   using moment tensor source:
     xi coordinate of source in that element:  -0.96247857547326687
     eta coordinate of source in that element:   0.82205027725027091
     gamma coordinate of source in that element:   0.57780669856269651

     at (x,y,z) coordinates =  -0.61549043506817458       0.46482170738287004       0.63173397568367040

   source time function:
     using (quasi) Heaviside source time function

     half duration:    16.600000000000001       seconds
     time shift:    62.600000000000001       seconds

   magnitude of the source:
        scalar moment M0 =    2.5748561571474241E+027  dyne-cm
     moment magnitude Mw =    7.5738355056977831


   original (requested) position of the source:

         latitude:    39.319600000000001
        longitude:    142.93969999999999
            depth:    19.219999999999999       km

   position of the source that will be used:

         latitude:    39.319599999999994
        longitude:    142.93969999999999
            depth:    19.220000000000542       km

[...]

 Station #           5 : II.ERM
        original latitude:    42.0149994
       original longitude:    143.157196
      epicentral distance:    3.74220967
   closest estimate found:    1.14308823E-04  km away
    in slice            3  in element         1652
    at xi,eta,gamma coordinates =  -0.47015461301856254      -0.37792176561433877        1.0000000000000000
    at (x,y,z)                  =  -0.59458644990489284       0.44550060947130909       0.66932512627726914
    at lat/lon                  =    42.0149994       143.157196

 Station #           6 : IU.ADK
        original latitude:    51.8823013
       original longitude:   -176.684204
      epicentral distance:    31.3915329
   closest estimate found:    1.07161561E-03  km away
    in slice            2  in element         1848
    at xi,eta,gamma coordinates =  -0.56152185648320219       0.87030065167437043        1.0000000000000000
    at (x,y,z)                  =  -0.61624546078531683       -3.5702994490704333E-002  0.78674423534063231
    at lat/lon                  =    51.8823013      -176.684204

 Station #           7 : IU.BILL
        original latitude:    68.0653000
       original longitude:    166.453094
      epicentral distance:    32.5693207
   closest estimate found:    1.06989243E-03  km away
    in slice            0  in element         1866
    at xi,eta,gamma coordinates =   0.76959232233802577       0.56471098813516241        1.0000000000000000
    at (x,y,z)                  =  -0.36315699076698521        8.7500740875436953E-002  0.92761034721838698
    at lat/lon                  =    68.0653000       166.453094

 Station #           8 : IU.GUMO
        original latitude:    13.5893002
       original longitude:    144.868393
      epicentral distance:    24.8313484
   closest estimate found:    3.46278283E-03  km away
    in slice            3  in element         1890
    at xi,eta,gamma coordinates =   0.66499350191198670       0.76929074980455792        1.0000000000000000
    at (x,y,z)                  =  -0.79493672723720465       0.55934612846009779       0.23496046735793852
    at lat/lon                  =    13.5893002       144.868393

 Station #           9 : IU.INCN
        original latitude:    37.4776001
       original longitude:    126.623901
      epicentral distance:    12.4379702
   closest estimate found:    7.24375132E-05  km away
    in slice            1  in element         1806
    at xi,eta,gamma coordinates =  -0.50093339549123272       0.23809166037291118        1.0000000000000000
    at (x,y,z)                  =  -0.47342457308526714       0.63691151234484267       0.60845121111053369
    at lat/lon                  =    37.4776001       126.623901

 Station #          10 : IU.MAJO
        original latitude:    36.5457001
       original longitude:    138.204102
      epicentral distance:    3.75336075
   closest estimate found:    1.88303791E-04  km away
    in slice            3  in element         1716
    at xi,eta,gamma coordinates =   0.26891009117984810        8.5819240004669423E-002   1.0000000000000000
    at (x,y,z)                  =  -0.59894042159190519       0.53543742533215177       0.59546374853906903
    at lat/lon                  =    36.5457001       138.204102

 Station #          11 : IU.TATO
        original latitude:    24.9734993
       original longitude:    121.497101
      epicentral distance:    22.1323509
   closest estimate found:    1.75763736E-04  km away
    in slice            1  in element         1936
    at xi,eta,gamma coordinates =   0.74862263917370198        3.1514305097890910E-002   1.0000000000000000
    at (x,y,z)                  =  -0.47360746331285314       0.77294495119825146       0.42219902644998486
    at lat/lon                  =    24.9734993       121.497101

 Station #          12 : IU.WAKE
        original latitude:    19.2833996
       original longitude:    166.651993
      epicentral distance:    28.3835678
   closest estimate found:    1.51094340E-04  km away
    in slice            3  in element         1674
    at xi,eta,gamma coordinates =  -0.70952079036981119      -0.89604510323024367        1.0000000000000000
    at (x,y,z)                  =  -0.91839808347286478       0.21791265780661154       0.33024094427089867
    at lat/lon                  =    19.2833996       166.651993

 Station #          13 : IU.YSS
        original latitude:    46.9586983
       original longitude:    142.760406
      epicentral distance:    8.64196014
   closest estimate found:    2.88816336E-05  km away
    in slice            2  in element         2130
    at xi,eta,gamma coordinates =  -0.94586623323471064      -0.88376456606827736        1.0000000000000000
    at (x,y,z)                  =  -0.54336652898694882       0.41302987201129077       0.73086190962206976
    at lat/lon                  =    46.9586983       142.760406

 Station #          14 : PS.OGS
        original latitude:    27.0569992
       original longitude:    142.203003
      epicentral distance:    11.2653618
   closest estimate found:    1.97891641E-04  km away
    in slice            3  in element         1786
    at xi,eta,gamma coordinates =    4.2200790284841055E-003  0.42396156082116665        1.0000000000000000
    at (x,y,z)                  =  -0.70370460840723081       0.54579023369590696       0.45487666766494189
    at lat/lon                  =    27.0569992       142.203003

 maximum error in location of all the receivers:    3.46278283E-03  km

 Elapsed time for receiver detection in seconds =    9.5399999999998264E-004

 End of receiver detection - done


 found a total of           14  receivers in all slices
 this total is okay

 source arrays:
   number of sources is          239
   size of source array                 =   0.341892242     MB
                                        =    3.33879143E-04 GB

 seismograms:
   seismograms written by all processes
   Total number of simulation steps (NSTEP)                       =         2300
   writing out seismograms at every NTSTEP_BETWEEN_OUTPUT_SEISMOS =         2300
   number of subsampling steps for seismograms                    =            1
   Total number of samples for seismograms                        =         2300

   maximum number of local receivers is            6  in slice            3
   size of maximum seismogram array       =   0.157928467     MB
                                          =    1.54227018E-04 GB


 Total number of samples for seismograms =         2300

 Using          239  point sources

 Reference radius of the globe used is    6371.0000000000000       km


 no oceans

 no ellipticity

 no surface topography

 no self-gravitation

 no rotation

 no attenuation



 preparing mass matrices
 preparing constants
 preparing gravity arrays
 preparing elastic element arrays
   crust/mantle transverse isotropic and isotropic elements
   tiso elements =         8640
   iso elements  =            0
   inner core isotropic elements
 preparing wavefields
   allocating wavefields
   initializing wavefields
 preparing number of runs
   number of runs    :            1
   number of this run:            1
   time stepping     : begin/end =            1 /        2300
 preparing absorbing boundaries
 preparing optimized arrays
   using force vectorization
   using Deville products
   inverse table of ibool done
   fusing arrays:
     size of fused arrays =    10.0421906     MB
                          =    9.80682671E-03 GB
   fused arrays done
   bandwidth test (STREAM TRIAD):
      memory accesses =    5.06898880     MB
      timing  min/max =    5.80000014E-05 s /    5.90000018E-05 s
      timing      avg =    5.88000003E-05 s
      bandwidth       =    84.1868057     GB/s


 Elapsed time for preparing timerun in seconds =    8.95610005E-02


 time loop:

               scheme:         Newmark
            time step:   0.115000002      s
 number of time steps:         2300
   current time steps:            1  to         2300
 total simulated time:    4.09141684      minutes
 start time          :  -18.8999996      seconds

 All processes are synchronized before time loop

 Starting time iteration loop...

 Time step #            5
 Time:  -0.307333320      minutes
 Max norm displacement vector U in solid in all slices for forward prop. (m) =    2.23471179E-05
 Max non-dimensional potential Ufluid in fluid in all slices for forward prop. =    0.00000000
 Elapsed time in seconds =    2.8542000000000012E-002
 Elapsed time in hh:mm:ss =      0 h 00 m 00 s
 Mean elapsed time per time step in seconds =    5.7084000000000024E-003
 Time steps done =            5  out of         2300
 Time steps remaining =         2295
 Estimated remaining time in seconds =    13.100778000000005
 Estimated remaining time in hh:mm:ss =      0 h 00 m 13 s
 Estimated total run time in seconds =    13.129320000000005
 Estimated total run time in hh:mm:ss =      0 h 00 m 13 s
 We have done   0.217391297     % of that
 The run will finish approximately on (in local time): Thu Mar 14, 2024 18:02
 ************************************************************
 **** BEWARE: the above time estimates are not very reliable
 **** because fewer than 100 iterations have been performed
 ************************************************************

 Time step #          200
 Time:    6.64166659E-02  minutes
 Max norm displacement vector U in solid in all slices for forward prop. (m) =    1.07571042
 Max non-dimensional potential Ufluid in fluid in all slices for forward prop. =    0.00000000
 Elapsed time in seconds =    1.3167130000000000
 Elapsed time in hh:mm:ss =      0 h 00 m 01 s
 Mean elapsed time per time step in seconds =    6.5835650000000004E-003
 Time steps done =          200  out of         2300
 Time steps remaining =         2100
 Estimated remaining time in seconds =    13.825486500000000
 Estimated remaining time in hh:mm:ss =      0 h 00 m 13 s
 Estimated total run time in seconds =    15.142199500000000
 Estimated total run time in hh:mm:ss =      0 h 00 m 15 s
 We have done    8.69565201     % of that
 The run will finish approximately on (in local time): Thu Mar 14, 2024 18:02

 Time step #          400
 Time:   0.449750006      minutes
 Max norm displacement vector U in solid in all slices for forward prop. (m) =    4.77100134
 Max non-dimensional potential Ufluid in fluid in all slices for forward prop. =    0.00000000
 Elapsed time in seconds =    2.6385860000000001
 Elapsed time in hh:mm:ss =      0 h 00 m 02 s
 Mean elapsed time per time step in seconds =    6.5964650000000001E-003
 Time steps done =          400  out of         2300
 Time steps remaining =         1900
 Estimated remaining time in seconds =    12.533283500000000
 Estimated remaining time in hh:mm:ss =      0 h 00 m 12 s
 Estimated total run time in seconds =    15.171869500000000
 Estimated total run time in hh:mm:ss =      0 h 00 m 15 s
 We have done    17.3913040     % of that
 The run will finish approximately on (in local time): Thu Mar 14, 2024 18:02

 Time step #          600
 Time:   0.833083332      minutes
 Max norm displacement vector U in solid in all slices for forward prop. (m) =    8.89600945
 Max non-dimensional potential Ufluid in fluid in all slices for forward prop. =    0.00000000
 Elapsed time in seconds =    3.9587460000000001
 Elapsed time in hh:mm:ss =      0 h 00 m 03 s
 Mean elapsed time per time step in seconds =    6.5979100000000002E-003
 Time steps done =          600  out of         2300
 Time steps remaining =         1700
 Estimated remaining time in seconds =    11.216447000000001
 Estimated remaining time in hh:mm:ss =      0 h 00 m 11 s
 Estimated total run time in seconds =    15.175193000000000
 Estimated total run time in hh:mm:ss =      0 h 00 m 15 s
 We have done    26.0869560     % of that
 The run will finish approximately on (in local time): Thu Mar 14, 2024 18:02

 Time step #          800
 Time:    1.21641672      minutes
 Max norm displacement vector U in solid in all slices for forward prop. (m) =    13.8470497
 Max non-dimensional potential Ufluid in fluid in all slices for forward prop. =    4.09179152E-43
 Elapsed time in seconds =    5.2809720000000002
 Elapsed time in hh:mm:ss =      0 h 00 m 05 s
 Mean elapsed time per time step in seconds =    6.6012150000000006E-003
 Time steps done =          800  out of         2300
 Time steps remaining =         1500
 Estimated remaining time in seconds =    9.9018225000000015
 Estimated remaining time in hh:mm:ss =      0 h 00 m 09 s
 Estimated total run time in seconds =    15.182794500000002
 Estimated total run time in hh:mm:ss =      0 h 00 m 15 s
 We have done    34.7826080     % of that
 The run will finish approximately on (in local time): Thu Mar 14, 2024 18:02

 Time step #         1000
 Time:    1.59975004      minutes
 Max norm displacement vector U in solid in all slices for forward prop. (m) =    13.2918959
 Max non-dimensional potential Ufluid in fluid in all slices for forward prop. =    2.45262566E-37
 Elapsed time in seconds =    6.5999079999999992
 Elapsed time in hh:mm:ss =      0 h 00 m 06 s
 Mean elapsed time per time step in seconds =    6.5999079999999989E-003
 Time steps done =         1000  out of         2300
 Time steps remaining =         1300
 Estimated remaining time in seconds =    8.5798803999999986
 Estimated remaining time in hh:mm:ss =      0 h 00 m 08 s
 Estimated total run time in seconds =    15.179788399999998
 Estimated total run time in hh:mm:ss =      0 h 00 m 15 s
 We have done    43.4782600     % of that
 The run will finish approximately on (in local time): Thu Mar 14, 2024 18:02

 Time step #         1200
 Time:    1.98308337      minutes
 Max norm displacement vector U in solid in all slices for forward prop. (m) =    13.4028225
 Max non-dimensional potential Ufluid in fluid in all slices for forward prop. =    9.32961581E-33
 Elapsed time in seconds =    7.9167280000000009
 Elapsed time in hh:mm:ss =      0 h 00 m 07 s
 Mean elapsed time per time step in seconds =    6.5972733333333339E-003
 Time steps done =         1200  out of         2300
 Time steps remaining =         1100
 Estimated remaining time in seconds =    7.2570006666666673
 Estimated remaining time in hh:mm:ss =      0 h 00 m 07 s
 Estimated total run time in seconds =    15.173728666666669
 Estimated total run time in hh:mm:ss =      0 h 00 m 15 s
 We have done    52.1739120     % of that
 The run will finish approximately on (in local time): Thu Mar 14, 2024 18:02

 Time step #         1400
 Time:    2.36641669      minutes
 Max norm displacement vector U in solid in all slices for forward prop. (m) =    13.3225403
 Max non-dimensional potential Ufluid in fluid in all slices for forward prop. =    5.10969437E-29
 Elapsed time in seconds =    9.2362250000000010
 Elapsed time in hh:mm:ss =      0 h 00 m 09 s
 Mean elapsed time per time step in seconds =    6.5973035714285725E-003
 Time steps done =         1400  out of         2300
 Time steps remaining =          900
 Estimated remaining time in seconds =    5.9375732142857149
 Estimated remaining time in hh:mm:ss =      0 h 00 m 05 s
 Estimated total run time in seconds =    15.173798214285716
 Estimated total run time in hh:mm:ss =      0 h 00 m 15 s
 We have done    60.8695641     % of that
 The run will finish approximately on (in local time): Thu Mar 14, 2024 18:02

 Time step #         1600
 Time:    2.74974990      minutes
 Max norm displacement vector U in solid in all slices for forward prop. (m) =    13.3886347
 Max non-dimensional potential Ufluid in fluid in all slices for forward prop. =    1.46829053E-25
 Elapsed time in seconds =    10.557059000000001
 Elapsed time in hh:mm:ss =      0 h 00 m 10 s
 Mean elapsed time per time step in seconds =    6.5981618750000004E-003
 Time steps done =         1600  out of         2300
 Time steps remaining =          700
 Estimated remaining time in seconds =    4.6187133125000006
 Estimated remaining time in hh:mm:ss =      0 h 00 m 04 s
 Estimated total run time in seconds =    15.175772312500001
 Estimated total run time in hh:mm:ss =      0 h 00 m 15 s
 We have done    69.5652161     % of that
 The run will finish approximately on (in local time): Thu Mar 14, 2024 18:02

 Time step #         1800
 Time:    3.13308334      minutes
 Max norm displacement vector U in solid in all slices for forward prop. (m) =    13.3100615
 Max non-dimensional potential Ufluid in fluid in all slices for forward prop. =    1.87212937E-22
 Elapsed time in seconds =    11.878357000000001
 Elapsed time in hh:mm:ss =      0 h 00 m 11 s
 Mean elapsed time per time step in seconds =    6.5990872222222233E-003
 Time steps done =         1800  out of         2300
 Time steps remaining =          500
 Estimated remaining time in seconds =    3.2995436111111118
 Estimated remaining time in hh:mm:ss =      0 h 00 m 03 s
 Estimated total run time in seconds =    15.177900611111113
 Estimated total run time in hh:mm:ss =      0 h 00 m 15 s
 We have done    78.2608719     % of that
 The run will finish approximately on (in local time): Thu Mar 14, 2024 18:02

 Time step #         2000
 Time:    3.51641655      minutes
 Max norm displacement vector U in solid in all slices for forward prop. (m) =    13.4448986
 Max non-dimensional potential Ufluid in fluid in all slices for forward prop. =    1.08802207E-19
 Elapsed time in seconds =    13.198247000000000
 Elapsed time in hh:mm:ss =      0 h 00 m 13 s
 Mean elapsed time per time step in seconds =    6.5991234999999999E-003
 Time steps done =         2000  out of         2300
 Time steps remaining =          300
 Estimated remaining time in seconds =    1.9797370500000000
 Estimated remaining time in hh:mm:ss =      0 h 00 m 01 s
 Estimated total run time in seconds =    15.177984050000001
 Estimated total run time in hh:mm:ss =      0 h 00 m 15 s
 We have done    86.9565201     % of that
 The run will finish approximately on (in local time): Thu Mar 14, 2024 18:02

 Time step #         2200
 Time:    3.89974999      minutes
 Max norm displacement vector U in solid in all slices for forward prop. (m) =    13.4636250
 Max non-dimensional potential Ufluid in fluid in all slices for forward prop. =    2.18725215E-16
 Elapsed time in seconds =    14.517490000000000
 Elapsed time in hh:mm:ss =      0 h 00 m 14 s
 Mean elapsed time per time step in seconds =    6.5988590909090913E-003
 Time steps done =         2200  out of         2300
 Time steps remaining =          100
 Estimated remaining time in seconds =   0.65988590909090916
 Estimated remaining time in hh:mm:ss =      0 h 00 m 00 s
 Estimated total run time in seconds =    15.177375909090909
 Estimated total run time in hh:mm:ss =      0 h 00 m 15 s
 We have done    95.6521759     % of that
 The run will finish approximately on (in local time): Thu Mar 14, 2024 18:02

 Time step #         2300
 Time:    4.09141684      minutes
 Max norm displacement vector U in solid in all slices for forward prop. (m) =    13.3747835
 Max non-dimensional potential Ufluid in fluid in all slices for forward prop. =    5.56259716E-14
 Elapsed time in seconds =    15.178726000000001
 Elapsed time in hh:mm:ss =      0 h 00 m 15 s
 Mean elapsed time per time step in seconds =    6.5994460869565220E-003
 Time steps done =         2300  out of         2300
 Time steps remaining =            0
 Estimated remaining time in seconds =    0.0000000000000000
 Estimated remaining time in hh:mm:ss =      0 h 00 m 00 s
 Estimated total run time in seconds =    15.178726000000001
 Estimated total run time in hh:mm:ss =      0 h 00 m 15 s
 We have done    100.000000     % of that

 Total number of time steps written:         2300
 Writing the seismograms in parallel took    3.00079994E-02  seconds

 Time-Loop Complete. Timing info:
 Total elapsed time in seconds =    15.215516000000001
 Total elapsed time in hh:mm:ss =      0 h 00 m 15 s

 finalizing simulation

 End of the simulation

