
 ******************************
 **** Specfem3D MPI Solver ****
 ******************************

 Version: 7.0.3


 Planet: Earth


 There are            4  MPI processes
 Processes are numbered from 0 to            3

 There are           32  elements along xi in each chunk
 There are           32  elements along eta in each chunk

 There are            2  slices along xi in each chunk
 There are            2  slices along eta in each chunk
 There is a total of            4  slices in each chunk
 There are            1  chunks
 There is a total of            4  slices in all the chunks

 NDIM =            3

 NGLLX =            5
 NGLLY =            5
 NGLLZ =            5

 using single precision for the calculations

 smallest and largest possible floating-point numbers are:    1.17549435E-38   3.40282347E+38

 model: sgloberani_aniso
   no oceans
   no ellipticity
   no surface topography
   no self-gravitation
   no rotation
   no attenuation

   incorporating 3-D lateral variations in the mantle
   no heterogeneities in the mantle
   incorporating crustal variations
   using one layer only in crust
   incorporating transverse isotropy
   no inner-core anisotropy
   no general mantle anisotropy


 creating global slice addressing

 mesh databases:
   reading in crust/mantle databases...
   reading in outer core databases...
   reading in inner core databases...
   reading in coupling surface databases...
   reading in MPI databases...
   for overlapping of communications with calculations:

   percentage of edge elements in crust/mantle    20.6018524     %
   percentage of volume elements in crust/mantle    79.3981476     %

   percentage of edge elements in outer core    51.1627922     %
   percentage of volume elements in outer core    48.8372078     %

   percentage of edge elements in inner core    75.0000000     %
   percentage of volume elements in inner core    25.0000000     %

   reading in Stacey databases...

 Elapsed time for reading mesh in seconds =    8.91809985E-02

 adjacency:
   total number of elements in this slice =         2160

   using kd-tree search radius =    1876.4143871269287      (km)

   maximum search elements                                      =         1208
   maximum of actual search elements (after distance criterion) =         1207

   estimated typical element size at surface =    312.73573118782144      (km)
   maximum distance between neighbor centers =    1418.9232077676302      (km)

   maximum neighbors found per element =           37 (should be 37 for globe meshes)
   total number of neighbors           =        47284

   Elapsed time for detection of neighbors in seconds =   0.27633900000000000

 kd-tree:
   total data points:        58320
   theoretical   number of nodes:       116632
                tree memory size:    3.55932617     MB
   actual        number of nodes:       116639
                tree memory size:    3.55953979     MB
   maximum depth   :           21
   creation timing :    3.34280133E-02 (s)


 sources:         239

 ********************
  locating sources
 ********************


 source #            1

   source located in slice            3
                  in element         1685

   using moment tensor source:
     xi coordinate of source in that element:  -0.11864752978603350
     eta coordinate of source in that element:  -0.84994645670341873
     gamma coordinate of source in that element:    5.9879412014633870E-002

   source time function:
     using (quasi) Heaviside source time function

     half duration:    12.600000000000000       seconds
     time shift:    0.0000000000000000       seconds

   magnitude of the source:
        scalar moment M0 =    5.6942182347535656E+027  dyne-cm
     moment magnitude Mw =    7.8036227385058474


   original (requested) position of the source:

         latitude:    38.321500000000000
        longitude:    142.36920000000001
            depth:    24.399999999999999       km

   position of the source that will be used:

         latitude:    38.321500000000015
        longitude:    142.36920000000001
            depth:    24.399999999999668       km

   Error in location of the source:    7.90811264E-13  km

 source #            2

   source located in slice            3
                  in element         1685

   using moment tensor source:
     xi coordinate of source in that element:   -6.3358139196604199E-002
     eta coordinate of source in that element:  -0.96083966633405349
     gamma coordinate of source in that element:  -0.45805635062498357

   source time function:
     using (quasi) Heaviside source time function

     half duration:    13.000000000000000       seconds
     time shift:    9.0000000000000000       seconds

   magnitude of the source:
        scalar moment M0 =    4.8371335514951416E+027  dyne-cm
     moment magnitude Mw =    7.7563920521776097


   original (requested) position of the source:

         latitude:    38.366500000000002
        longitude:    142.15510000000000
            depth:    29.579999999999998       km

   position of the source that will be used:

         latitude:    38.366500000000023
        longitude:    142.15510000000000
            depth:    29.579999999998090       km

   Error in location of the source:    2.45023901E-12  km

 source #            3

   source located in slice            3
                  in element         1685

   using moment tensor source:
     xi coordinate of source in that element:   -1.6408175151979886E-003
     eta coordinate of source in that element:  -0.65237496242012161
     gamma coordinate of source in that element:   0.57781060969342635

   source time function:
     using (quasi) Heaviside source time function

     half duration:    14.400000000000000       seconds
     time shift:    9.8000000000000007       seconds

   magnitude of the source:
        scalar moment M0 =    4.1156652755052859E+027  dyne-cm
     moment magnitude Mw =    7.7096266977511867


   original (requested) position of the source:

         latitude:    38.015799999999999
        longitude:    142.49449999999999
            depth:    19.219999999999999       km

   position of the source that will be used:

         latitude:    38.015800000000006
        longitude:    142.49449999999999
            depth:    19.220000000000542       km

   Error in location of the source:    1.62068080E-12  km

 source #            4

   source located in slice            3
                  in element         1685

   using moment tensor source:
     xi coordinate of source in that element:  -0.29139453338863225
     eta coordinate of source in that element:  -0.93640347494718168
     gamma coordinate of source in that element:    5.9879170561348567E-002

   source time function:
     using (quasi) Heaviside source time function

     half duration:    15.199999999999999       seconds
     time shift:    11.600000000000000       seconds

   magnitude of the source:
        scalar moment M0 =    5.8828534186226319E+027  dyne-cm
     moment magnitude Mw =    7.8130586848871779


   original (requested) position of the source:

         latitude:    38.582299999999996
        longitude:    142.45849999999999
            depth:    24.399999999999999       km

   position of the source that will be used:

         latitude:    38.582300000000018
        longitude:    142.45849999999999
            depth:    24.399999999998965       km

   Error in location of the source:    1.22511951E-12  km

 source #            5

   source located in slice            3
                  in element         1683

   using moment tensor source:
     xi coordinate of source in that element:  -0.18140366055943319
     eta coordinate of source in that element:   0.84247312161647370
     gamma coordinate of source in that element:  -0.97499496017565657

   source time function:
     using (quasi) Heaviside source time function

     half duration:    12.600000000000000       seconds
     time shift:    17.600000000000001       seconds

   magnitude of the source:
        scalar moment M0 =    5.8764563999063244E+027  dyne-cm
     moment magnitude Mw =    7.8127436788484417


   original (requested) position of the source:

         latitude:    38.672300000000000
        longitude:    142.03020000000001
            depth:    34.750000000000000       km

   position of the source that will be used:

         latitude:    38.672300000000014
        longitude:    142.03020000000001
            depth:    34.749999999998401       km

   Error in location of the source:    1.58162253E-12  km

 source #            6

   source located in slice            3
                  in element         1685

   using moment tensor source:
     xi coordinate of source in that element:  -0.17423726996760575
     eta coordinate of source in that element:  -0.73918505494517983
     gamma coordinate of source in that element:   0.57781101569912652

   source time function:
     using (quasi) Heaviside source time function

     half duration:    13.000000000000000       seconds
     time shift:    17.600000000000001       seconds

   magnitude of the source:
        scalar moment M0 =    4.7064455335210247E+027  dyne-cm
     moment magnitude Mw =    7.7484620247168152


   original (requested) position of the source:

         latitude:    38.276499999999999
        longitude:    142.58320000000001
            depth:    19.219999999999999       km

   position of the source that will be used:

         latitude:    38.276500000000006
        longitude:    142.58320000000001
            depth:    19.219999999999835       km

   Error in location of the source:    7.90811264E-13  km

 source #            7

   source located in slice            3
                  in element           25

   using moment tensor source:
     xi coordinate of source in that element:    4.6101244642945113E-002
     eta coordinate of source in that element:   0.81721603955541400
     gamma coordinate of source in that element:   0.65201065375923772

   source time function:
     using (quasi) Heaviside source time function

     half duration:    12.000000000000000       seconds
     time shift:    20.000000000000000       seconds

   magnitude of the source:
        scalar moment M0 =    4.5662960794280519E+027  dyne-cm
     moment magnitude Mw =    7.7397093785310425


   original (requested) position of the source:

         latitude:    38.456499999999998
        longitude:    141.72720000000001
            depth:    39.930000000000000       km

   position of the source that will be used:

         latitude:    38.456500000000020
        longitude:    141.72720000000001
            depth:    39.930000000000355       km

   Error in location of the source:    7.90811264E-13  km

 source #            8

   source located in slice            3
                  in element         1683

   using moment tensor source:
     xi coordinate of source in that element:   -8.4055206586052481E-003
     eta coordinate of source in that element:   0.92817589399893963
     gamma coordinate of source in that element:  -0.97499418256119708

   source time function:
     using (quasi) Heaviside source time function

     half duration:    13.400000000000000       seconds
     time shift:    22.000000000000000       seconds

   magnitude of the source:
        scalar moment M0 =    4.8139990325092512E+027  dyne-cm
     moment magnitude Mw =    7.7550039991046198


   original (requested) position of the source:

         latitude:    38.411499999999997
        longitude:    141.94100000000000
            depth:    34.750000000000000       km

   position of the source that will be used:

         latitude:    38.411500000000011
        longitude:    141.94100000000003
            depth:    34.750000000001940       km

   Error in location of the source:    2.47563081E-12  km

 source #            9

   source located in slice            3
                  in element           25

   using moment tensor source:
     xi coordinate of source in that element:   0.21942553895053155
     eta coordinate of source in that element:   0.90235068281185160
     gamma coordinate of source in that element:   0.65201309533418794

   source time function:
     using (quasi) Heaviside source time function

     half duration:    13.600000000000000       seconds
     time shift:    22.600000000000001       seconds

   magnitude of the source:
        scalar moment M0 =    3.8747070876390120E+027  dyne-cm
     moment magnitude Mw =    7.6921592514380741


   original (requested) position of the source:

         latitude:    38.195700000000002
        longitude:    141.63820000000001
            depth:    39.930000000000000       km

   position of the source that will be used:

         latitude:    38.195700000000009
        longitude:    141.63820000000004
            depth:    39.929999999999652       km

   Error in location of the source:    1.06098463E-12  km

 source #           10

   source located in slice            3
                  in element           25

   using moment tensor source:
     xi coordinate of source in that element:  -0.12700380077475865
     eta coordinate of source in that element:   0.73186634051074229
     gamma coordinate of source in that element:   0.65200852280130506

   source time function:
     using (quasi) Heaviside source time function

     half duration:    15.000000000000000       seconds
     time shift:    26.199999999999999       seconds

   magnitude of the source:
        scalar moment M0 =    4.4159858112317351E+027  dyne-cm
     moment magnitude Mw =    7.7300184462099786


   original (requested) position of the source:

         latitude:    38.717300000000002
        longitude:    141.81630000000001
            depth:    39.930000000000000       km

   position of the source that will be used:

         latitude:    38.717300000000002
        longitude:    141.81630000000001
            depth:    39.930000000000355       km

   Error in location of the source:    7.90811264E-13  km

 source #           11

   source located in slice            3
                  in element         1683

   using moment tensor source:
     xi coordinate of source in that element:  -0.52644290693384865
     eta coordinate of source in that element:   0.67020012779711302
     gamma coordinate of source in that element:  -0.97499254894158760

   source time function:
     using (quasi) Heaviside source time function

     half duration:    8.0000000000000000       seconds
     time shift:    26.800000000000001       seconds

   magnitude of the source:
        scalar moment M0 =    3.7384981389590127E+027  dyne-cm
     moment magnitude Mw =    7.6817981125260211


   original (requested) position of the source:

         latitude:    39.193800000000003
        longitude:    142.20830000000001
            depth:    34.750000000000000       km

   position of the source that will be used:

         latitude:    39.193800000000010
        longitude:    142.20830000000001
            depth:    34.749999999996987       km

   Error in location of the source:    2.12196927E-12  km

 source #           12

   source located in slice            3
                  in element         1685

   using moment tensor source:
     xi coordinate of source in that element:   0.16470477892060342
     eta coordinate of source in that element:  -0.98621080163307795
     gamma coordinate of source in that element:  -0.97499232008968650

   source time function:
     using (quasi) Heaviside source time function

     half duration:    15.000000000000000       seconds
     time shift:    29.199999999999999       seconds

   magnitude of the source:
        scalar moment M0 =    4.2747608745987181E+027  dyne-cm
     moment magnitude Mw =    7.7206078838600476


   original (requested) position of the source:

         latitude:    38.150700000000001
        longitude:    141.85220000000001
            depth:    34.750000000000000       km

   position of the source that will be used:

         latitude:    38.150700000000015
        longitude:    141.85220000000001
            depth:    34.749999999999112       km

   Error in location of the source:    1.00030596E-12  km

 source #           13

   source located in slice            3
                  in element         1686

   using moment tensor source:
     xi coordinate of source in that element:  -0.11398715306947163
     eta coordinate of source in that element:  -0.43036802655990586
     gamma coordinate of source in that element:  -0.18298823556210472

   source time function:
     using (quasi) Heaviside source time function

     half duration:    10.400000000000000       seconds
     time shift:    29.399999999999999       seconds

   magnitude of the source:
        scalar moment M0 =    1.3419050935889616E+027  dyne-cm
     moment magnitude Mw =    7.3851478675905220


   original (requested) position of the source:

         latitude:    37.925699999999999
        longitude:    142.92230000000001
            depth:    8.8710000000000004       km

   position of the source that will be used:

         latitude:    37.925700000000006
        longitude:    142.92230000000001
            depth:    8.8709999999996416       km

   Error in location of the source:    7.90811264E-13  km

 source #           14

   source located in slice            3
                  in element         1686

   using moment tensor source:
     xi coordinate of source in that element:    5.8805353706288178E-002
     eta coordinate of source in that element:  -0.34313223828715805
     gamma coordinate of source in that element:  -0.18299082254570420

   source time function:
     using (quasi) Heaviside source time function

     half duration:    14.600000000000000       seconds
     time shift:    29.600000000000001       seconds

   magnitude of the source:
        scalar moment M0 =    1.1938906927353106E+027  dyne-cm
     moment magnitude Mw =    7.3513097110420418


   original (requested) position of the source:

         latitude:    37.664900000000003
        longitude:    142.83320000000001
            depth:    8.8710000000000004       km

   position of the source that will be used:

         latitude:    37.664900000000024
        longitude:    142.83320000000001
            depth:    8.8710000000003486       km

   Error in location of the source:    0.00000000      km

 source #           15

   source located in slice            3
                  in element           25

   using moment tensor source:
     xi coordinate of source in that element:  -0.47234180605404963
     eta coordinate of source in that element:   0.56038480145261094
     gamma coordinate of source in that element:   0.65200676459110407

   source time function:
     using (quasi) Heaviside source time function

     half duration:    9.5999999999999996       seconds
     time shift:    30.399999999999999       seconds

   magnitude of the source:
        scalar moment M0 =    3.6606587050693476E+027  dyne-cm
     moment magnitude Mw =    7.6757061600693426


   original (requested) position of the source:

         latitude:    39.238799999999998
        longitude:    141.99440000000001
            depth:    39.930000000000000       km

   position of the source that will be used:

         latitude:    39.238800000000012
        longitude:    141.99440000000001
            depth:    39.929999999999652       km

   Error in location of the source:    3.53661544E-13  km

 source #           16

   source located in slice            3
                  in element         1685

   using moment tensor source:
     xi coordinate of source in that element:    5.4218342902330685E-002
     eta coordinate of source in that element:  -0.76357222512628764
     gamma coordinate of source in that element:    5.9879462397872521E-002

   source time function:
     using (quasi) Heaviside source time function

     half duration:    10.000000000000000       seconds
     time shift:    33.600000000000001       seconds

   magnitude of the source:
        scalar moment M0 =    5.3984173435368996E+027  dyne-cm
     moment magnitude Mw =    7.7881776374483280


   original (requested) position of the source:

         latitude:    38.060699999999997
        longitude:    142.28030000000001
            depth:    24.399999999999999       km

   position of the source that will be used:

         latitude:    38.060700000000026
        longitude:    142.28030000000001
            depth:    24.400000000001086       km

   Error in location of the source:    1.06098463E-12  km

 source #           17

   source located in slice            3
                  in element           25

   using moment tensor source:
     xi coordinate of source in that element:   -7.2738598134964055E-002
     eta coordinate of source in that element:   0.62104086689772087
     gamma coordinate of source in that element:   0.28636141290470907

   source time function:
     using (quasi) Heaviside source time function

     half duration:    10.000000000000000       seconds
     time shift:    34.000000000000000       seconds

   magnitude of the source:
        scalar moment M0 =    3.4900141274785685E+027  dyne-cm
     moment magnitude Mw =    7.6618847899830165


   original (requested) position of the source:

         latitude:    38.762200000000000
        longitude:    141.60200000000000
            depth:    45.109999999999999       km

   position of the source that will be used:

         latitude:    38.762200000000007
        longitude:    141.60200000000000
            depth:    45.109999999999481       km

   Error in location of the source:    1.06098463E-12  km

 source #           18

   source located in slice            3
                  in element         1686

   using moment tensor source:
     xi coordinate of source in that element:   -5.7672193119682122E-002
     eta coordinate of source in that element:  -0.54134919795115555
     gamma coordinate of source in that element:  -0.87364077806098539

   source time function:
     using (quasi) Heaviside source time function

     half duration:    11.199999999999999       seconds
     time shift:    37.200000000000003       seconds

   magnitude of the source:
        scalar moment M0 =    2.5801086079465725E+027  dyne-cm
     moment magnitude Mw =    7.5744253251225473


   original (requested) position of the source:

         latitude:    37.970799999999997
        longitude:    142.70840000000001
            depth:    14.050000000000001       km

   position of the source that will be used:

         latitude:    37.970800000000033
        longitude:    142.70840000000001
            depth:    14.049999999998816       km

   Error in location of the source:    2.23675202E-12  km

 source #           19

   source located in slice            3
                  in element         1686

   using moment tensor source:
     xi coordinate of source in that element:  -0.57468969663918101
     eta coordinate of source in that element:  -0.80340540833699059
     gamma coordinate of source in that element:  -0.87363438970107055

   source time function:
     using (quasi) Heaviside source time function

     half duration:    13.400000000000000       seconds
     time shift:    38.200000000000003       seconds

   magnitude of the source:
        scalar moment M0 =    3.8982846586671935E+027  dyne-cm
     moment magnitude Mw =    7.6939156991881816


   original (requested) position of the source:

         latitude:    38.753100000000003
        longitude:    142.97550000000001
            depth:    14.050000000000001       km

   position of the source that will be used:

         latitude:    38.753100000000025
        longitude:    142.97550000000001
            depth:    14.049999999997400       km

   Error in location of the source:    2.64656070E-12  km

 source #           20

   source located in slice            3
                  in element         1683

   using moment tensor source:
     xi coordinate of source in that element:  -0.35401133342552960
     eta coordinate of source in that element:   0.75647225457467548
     gamma coordinate of source in that element:  -0.97499445922991190

   source time function:
     using (quasi) Heaviside source time function

     half duration:    11.000000000000000       seconds
     time shift:    39.399999999999999       seconds

   magnitude of the source:
        scalar moment M0 =    3.6079310837376041E+027  dyne-cm
     moment magnitude Mw =    7.6715054888995375


   original (requested) position of the source:

         latitude:    38.933000000000000
        longitude:    142.11920000000001
            depth:    34.750000000000000       km

   position of the source that will be used:

         latitude:    38.933000000000028
        longitude:    142.11920000000001
            depth:    34.749999999999112       km

   Error in location of the source:    1.22511951E-12  km

 source #           21

   source located in slice            3
                  in element         1683

   using moment tensor source:
     xi coordinate of source in that element:  -0.58091534281401269
     eta coordinate of source in that element:   0.77996071046343851
     gamma coordinate of source in that element:  -0.45805347804512603

   source time function:
     using (quasi) Heaviside source time function

     half duration:    18.199999999999999       seconds
     time shift:    39.600000000000001       seconds

   magnitude of the source:
        scalar moment M0 =    4.5100441023342554E+027  dyne-cm
     moment magnitude Mw =    7.7361205258205992


   original (requested) position of the source:

         latitude:    39.148800000000001
        longitude:    142.42230000000001
            depth:    29.579999999999998       km

   position of the source that will be used:

         latitude:    39.148800000000008
        longitude:    142.42230000000001
            depth:    29.579999999998090       km

   Error in location of the source:    1.73258066E-12  km

 source #           22

   source located in slice            3
                  in element         1685

   using moment tensor source:
     xi coordinate of source in that element:   0.17150117867580603
     eta coordinate of source in that element:  -0.56601513775415568
     gamma coordinate of source in that element:   0.57781135442941900

   source time function:
     using (quasi) Heaviside source time function

     half duration:    10.800000000000001       seconds
     time shift:    40.200000000000003       seconds

   magnitude of the source:
        scalar moment M0 =    4.2928239836965126E+027  dyne-cm
     moment magnitude Mw =    7.7218287211376264


   original (requested) position of the source:

         latitude:    37.755000000000003
        longitude:    142.40520000000001
            depth:    19.219999999999999       km

   position of the source that will be used:

         latitude:    37.755000000000010
        longitude:    142.40520000000001
            depth:    19.219999999999132       km

   Error in location of the source:    1.06098463E-12  km

 source #           23

   source located in slice            3
                  in element         1685

   using moment tensor source:
     xi coordinate of source in that element:   0.40079642342221811
     eta coordinate of source in that element:  -0.59173048511875481
     gamma coordinate of source in that element:    5.9880299269363141E-002

   source time function:
     using (quasi) Heaviside source time function

     half duration:    15.800000000000001       seconds
     time shift:    42.399999999999999       seconds

   magnitude of the source:
        scalar moment M0 =    5.2956640357938124E+027  dyne-cm
     moment magnitude Mw =    7.7826136167110924


   original (requested) position of the source:

         latitude:    37.539200000000001
        longitude:    142.10220000000001
            depth:    24.399999999999999       km

   position of the source that will be used:

         latitude:    37.539200000000015
        longitude:    142.10220000000001
            depth:    24.399999999999668       km

   Error in location of the source:    7.07323089E-13  km

 source #           24

   source located in slice            3
                  in element         1683

   using moment tensor source:
     xi coordinate of source in that element:  -0.63575997552163011
     eta coordinate of source in that element:   0.88966639870610187
     gamma coordinate of source in that element:    5.9881303049280916E-002

   source time function:
     using (quasi) Heaviside source time function

     half duration:    10.800000000000001       seconds
     time shift:    42.600000000000001       seconds

   magnitude of the source:
        scalar moment M0 =    4.8059645384667572E+027  dyne-cm
     moment magnitude Mw =    7.7545203746483011


   original (requested) position of the source:

         latitude:    39.103800000000000
        longitude:    142.63640000000001
            depth:    24.399999999999999       km

   position of the source that will be used:

         latitude:    39.103800000000007
        longitude:    142.63640000000001
            depth:    24.400000000000379       km

   Error in location of the source:    1.00030596E-12  km

 source #           25

   source located in slice            3
                  in element           25

   using moment tensor source:
     xi coordinate of source in that element:   0.27388433492478009
     eta coordinate of source in that element:   0.79072526455255554
     gamma coordinate of source in that element:   0.28636760146453155

   source time function:
     using (quasi) Heaviside source time function

     half duration:    12.000000000000000       seconds
     time shift:    43.399999999999999       seconds

   magnitude of the source:
        scalar moment M0 =    2.9274343997773884E+027  dyne-cm
     moment magnitude Mw =    7.6109914478970317


   original (requested) position of the source:

         latitude:    38.240699999999997
        longitude:    141.42400000000001
            depth:    45.109999999999999       km

   position of the source that will be used:

         latitude:    38.240700000000011
        longitude:    141.42400000000001
            depth:    45.109999999999481       km

   Error in location of the source:    1.06098463E-12  km

 source #           26

   source located in slice            3
                  in element         1685

   using moment tensor source:
     xi coordinate of source in that element:  -0.34680264211770007
     eta coordinate of source in that element:  -0.82608392075527703
     gamma coordinate of source in that element:   0.57781196014584169

   source time function:
     using (quasi) Heaviside source time function

     half duration:    13.600000000000000       seconds
     time shift:    43.600000000000001       seconds

   magnitude of the source:
        scalar moment M0 =    4.9249213673925800E+027  dyne-cm
     moment magnitude Mw =    7.7615995338850077


   original (requested) position of the source:

         latitude:    38.537300000000002
        longitude:    142.67240000000001
            depth:    19.219999999999999       km

   position of the source that will be used:

         latitude:    38.537300000000016
        longitude:    142.67240000000001
            depth:    19.219999999999835       km

   Error in location of the source:    7.90811264E-13  km

 source #           27

   source located in slice            3
                  in element           18

   using moment tensor source:
     xi coordinate of source in that element:   0.56684812785791372
     eta coordinate of source in that element:  -0.92826385077458706
     gamma coordinate of source in that element:   0.65201643356499495

   source time function:
     using (quasi) Heaviside source time function

     half duration:    13.800000000000001       seconds
     time shift:    43.600000000000001       seconds

   magnitude of the source:
        scalar moment M0 =    1.4992676112022163E+027  dyne-cm
     moment magnitude Mw =    7.4172527726639395


   original (requested) position of the source:

         latitude:    37.674199999999999
        longitude:    141.46000000000001
            depth:    39.930000000000000       km

   position of the source that will be used:

         latitude:    37.674200000000020
        longitude:    141.46000000000001
            depth:    39.930000000001776       km

   Error in location of the source:    1.58162253E-12  km

 source #           28

   source located in slice            3
                  in element         1685

   using moment tensor source:
     xi coordinate of source in that element:   0.22736892912259088
     eta coordinate of source in that element:  -0.67757511667338188
     gamma coordinate of source in that element:    5.9879838382527979E-002

   source time function:
     using (quasi) Heaviside source time function

     half duration:    13.600000000000000       seconds
     time shift:    44.799999999999997       seconds

   magnitude of the source:
        scalar moment M0 =    5.8506242350709895E+027  dyne-cm
     moment magnitude Mw =    7.8114681372039101


   original (requested) position of the source:

         latitude:    37.799999999999997
        longitude:    142.19120000000001
            depth:    24.399999999999999       km

   position of the source that will be used:

         latitude:    37.800000000000011
        longitude:    142.19120000000001
            depth:    24.400000000000379       km

   Error in location of the source:    7.07323089E-13  km

 source #           29

   source located in slice            3
                  in element         1686

   using moment tensor source:
     xi coordinate of source in that element:  -0.40262246996012108
     eta coordinate of source in that element:  -0.71577018211822419
     gamma coordinate of source in that element:  -0.87363651215514260

   source time function:
     using (quasi) Heaviside source time function

     half duration:    9.4000000000000004       seconds
     time shift:    45.000000000000000       seconds

   magnitude of the source:
        scalar moment M0 =    3.5536160252621552E+027  dyne-cm
     moment magnitude Mw =    7.6671136664586506


   original (requested) position of the source:

         latitude:    38.492300000000000
        longitude:    142.88650000000001
            depth:    14.050000000000001       km

   position of the source that will be used:

         latitude:    38.492300000000021
        longitude:    142.88650000000001
            depth:    14.050000000000939       km

   Error in location of the source:    1.27514481E-12  km

 source #           30

   source located in slice            3
                  in element         1686

   using moment tensor source:
     xi coordinate of source in that element:   0.11534880283810277
     eta coordinate of source in that element:  -0.45450268590416537
     gamma coordinate of source in that element:  -0.87364018240596408

   source time function:
     using (quasi) Heaviside source time function

     half duration:    13.400000000000000       seconds
     time shift:    45.000000000000000       seconds

   magnitude of the source:
        scalar moment M0 =    2.5327775099680583E+027  dyne-cm
     moment magnitude Mw =    7.5690646941182784


   original (requested) position of the source:

         latitude:    37.709899999999998
        longitude:    142.61920000000001
            depth:    14.050000000000001       km

   position of the source that will be used:

         latitude:    37.709900000000033
        longitude:    142.61920000000001
            depth:    14.049999999998109       km

   Error in location of the source:    2.34592532E-12  km

 source #           31

   source located in slice            3
                  in element           25

   using moment tensor source:
     xi coordinate of source in that element:  -0.29981274726931062
     eta coordinate of source in that element:   0.64621372531058108
     gamma coordinate of source in that element:   0.65200722824804391

   source time function:
     using (quasi) Heaviside source time function

     half duration:    16.199999999999999       seconds
     time shift:    45.799999999999997       seconds

   magnitude of the source:
        scalar moment M0 =    3.5437161158873879E+027  dyne-cm
     moment magnitude Mw =    7.6663059490956051


   original (requested) position of the source:

         latitude:    38.978099999999998
        longitude:    141.90530000000001
            depth:    39.930000000000000       km

   position of the source that will be used:

         latitude:    38.978100000000005
        longitude:    141.90530000000001
            depth:    39.929999999998948       km

   Error in location of the source:    7.90811264E-13  km

 source #           32

   source located in slice            3
                  in element           25

   using moment tensor source:
     xi coordinate of source in that element:   0.39294829522572994
     eta coordinate of source in that element:   0.98718548465874245
     gamma coordinate of source in that element:   0.65201477758465232

   source time function:
     using (quasi) Heaviside source time function

     half duration:    17.199999999999999       seconds
     time shift:    46.399999999999999       seconds

   magnitude of the source:
        scalar moment M0 =    3.0875819179416118E+027  dyne-cm
     moment magnitude Mw =    7.6264123259140923


   original (requested) position of the source:

         latitude:    37.935000000000002
        longitude:    141.54920000000001
            depth:    39.930000000000000       km

   position of the source that will be used:

         latitude:    37.935000000000016
        longitude:    141.54920000000001
            depth:    39.930000000000355       km

   Error in location of the source:    0.00000000      km

 source #           33

   source located in slice            3
                  in element         1686

   using moment tensor source:
     xi coordinate of source in that element:   0.23190786011647971
     eta coordinate of source in that element:  -0.25618245731558342
     gamma coordinate of source in that element:  -0.18299100387832914

   source time function:
     using (quasi) Heaviside source time function

     half duration:    14.199999999999999       seconds
     time shift:    47.000000000000000       seconds

   magnitude of the source:
        scalar moment M0 =    1.5507377631308269E+027  dyne-cm
     moment magnitude Mw =    7.4270255752223129


   original (requested) position of the source:

         latitude:    37.404100000000000
        longitude:    142.74400000000000
            depth:    8.8710000000000004       km

   position of the source that will be used:

         latitude:    37.404100000000021
        longitude:    142.74400000000000
            depth:    8.8710000000003486       km

   Error in location of the source:    0.00000000      km

 source #           34

   source located in slice            3
                  in element         1685

   using moment tensor source:
     xi coordinate of source in that element:   0.45645930363650239
     eta coordinate of source in that element:  -0.70378552853806897
     gamma coordinate of source in that element:  -0.45805331310406344

   source time function:
     using (quasi) Heaviside source time function

     half duration:    13.000000000000000       seconds
     time shift:    47.399999999999999       seconds

   magnitude of the source:
        scalar moment M0 =    5.1511450120337321E+027  dyne-cm
     moment magnitude Mw =    7.7746025173719602


   original (requested) position of the source:

         latitude:    37.584200000000003
        longitude:    141.88820000000001
            depth:    29.579999999999998       km

   position of the source that will be used:

         latitude:    37.584199999999996
        longitude:    141.88820000000001
            depth:    29.580000000001625       km

   Error in location of the source:    1.62068080E-12  km

 source #           35

   source located in slice            3
                  in element         1683

   using moment tensor source:
     xi coordinate of source in that element:  -0.80777417441273680
     eta coordinate of source in that element:   0.80241252040100541
     gamma coordinate of source in that element:    5.9879360436821634E-002

   source time function:
     using (quasi) Heaviside source time function

     half duration:    12.000000000000000       seconds
     time shift:    47.600000000000001       seconds

   magnitude of the source:
        scalar moment M0 =    2.9898664114053654E+027  dyne-cm
     moment magnitude Mw =    7.6171011895216161


   original (requested) position of the source:

         latitude:    39.364699999999999
        longitude:    142.72579999999999
            depth:    24.399999999999999       km

   position of the source that will be used:

         latitude:    39.364700000000013
        longitude:    142.72579999999999
            depth:    24.400000000000379       km

   Error in location of the source:    1.06098463E-12  km

 source #           36

   source located in slice            3
                  in element         1683

   using moment tensor source:
     xi coordinate of source in that element:  -0.46379635050141521
     eta coordinate of source in that element:   0.97680172484859795
     gamma coordinate of source in that element:    5.9879258738626200E-002

   source time function:
     using (quasi) Heaviside source time function

     half duration:    15.600000000000000       seconds
     time shift:    48.000000000000000       seconds

   magnitude of the source:
        scalar moment M0 =    5.6038152043942343E+027  dyne-cm
     moment magnitude Mw =    7.7989892034865882


   original (requested) position of the source:

         latitude:    38.843100000000000
        longitude:    142.54759999999999
            depth:    24.399999999999999       km

   position of the source that will be used:

         latitude:    38.843100000000021
        longitude:    142.54759999999999
            depth:    24.400000000001086       km

   Error in location of the source:    1.00030596E-12  km

 source #           37

   source located in slice            3
                  in element         1686

   using moment tensor source:
     xi coordinate of source in that element:   0.80955149199392262
     eta coordinate of source in that element:  -0.10945056538953765
     gamma coordinate of source in that element:  -0.87363166882742005

   source time function:
     using (quasi) Heaviside source time function

     half duration:    10.000000000000000       seconds
     time shift:    49.399999999999999       seconds

   magnitude of the source:
        scalar moment M0 =    2.2431094322390957E+027  dyne-cm
     moment magnitude Mw =    7.5339003077143296


   original (requested) position of the source:

         latitude:    36.666800000000002
        longitude:    142.26310000000001
            depth:    14.050000000000001       km

   position of the source that will be used:

         latitude:    36.666800000000002
        longitude:    142.26310000000001
            depth:    14.049999999999523       km

   Error in location of the source:    1.58162253E-12  km

 source #           38

   source located in slice            3
                  in element         1685

   using moment tensor source:
     xi coordinate of source in that element:   0.10968575793563287
     eta coordinate of source in that element:  -0.87490939024689007
     gamma coordinate of source in that element:  -0.45805445295097391

   source time function:
     using (quasi) Heaviside source time function

     half duration:    11.800000000000001       seconds
     time shift:    50.000000000000000       seconds

   magnitude of the source:
        scalar moment M0 =    4.8783347691604767E+027  dyne-cm
     moment magnitude Mw =    7.7588477332499259


   original (requested) position of the source:

         latitude:    38.105699999999999
        longitude:    142.06610000000001
            depth:    29.579999999999998       km

   position of the source that will be used:

         latitude:    38.105699999999999
        longitude:    142.06610000000001
            depth:    29.580000000001625       km

   Error in location of the source:    2.23675202E-12  km

 source #           39

   source located in slice            3
                  in element         1686

   using moment tensor source:
     xi coordinate of source in that element:   0.46188160361037911
     eta coordinate of source in that element:  -0.28150941995386097
     gamma coordinate of source in that element:  -0.87363373111699327

   source time function:
     using (quasi) Heaviside source time function

     half duration:    11.800000000000001       seconds
     time shift:    50.799999999999997       seconds

   magnitude of the source:
        scalar moment M0 =    3.7503414704530573E+027  dyne-cm
     moment magnitude Mw =    7.6827138748374928


   original (requested) position of the source:

         latitude:    37.188400000000001
        longitude:    142.44120000000001
            depth:    14.050000000000001       km

   position of the source that will be used:

         latitude:    37.188400000000009
        longitude:    142.44120000000001
            depth:    14.050000000000232       km

   Error in location of the source:    7.07323089E-13  km

 source #           40

   source located in slice            3
                  in element         1686

   using moment tensor source:
     xi coordinate of source in that element:  -0.23031431937058519
     eta coordinate of source in that element:  -0.62834792241705795
     gamma coordinate of source in that element:  -0.87363925347540461

   source time function:
     using (quasi) Heaviside source time function

     half duration:    12.600000000000000       seconds
     time shift:    50.799999999999997       seconds

   magnitude of the source:
        scalar moment M0 =    3.1182249926841392E+027  dyne-cm
     moment magnitude Mw =    7.6292716320707719


   original (requested) position of the source:

         latitude:    38.231499999999997
        longitude:    142.79759999999999
            depth:    14.050000000000001       km

   position of the source that will be used:

         latitude:    38.231500000000004
        longitude:    142.79759999999999
            depth:    14.050000000002353       km

   Error in location of the source:    2.26453882E-12  km

 source #           41

   source located in slice            3
                  in element         1686

   using moment tensor source:
     xi coordinate of source in that element:  -0.74638496413653310
     eta coordinate of source in that element:  -0.89129251691216482
     gamma coordinate of source in that element:  -0.87363563021823720

   source time function:
     using (quasi) Heaviside source time function

     half duration:    14.000000000000000       seconds
     time shift:    51.200000000000003       seconds

   magnitude of the source:
        scalar moment M0 =    3.3958269184397491E+027  dyne-cm
     moment magnitude Mw =    7.6539636977495284


   original (requested) position of the source:

         latitude:    39.013800000000003
        longitude:    143.06440000000001
            depth:    14.050000000000001       km

   position of the source that will be used:

         latitude:    39.013800000000018
        longitude:    143.06440000000001
            depth:    14.049999999999523       km

   Error in location of the source:    7.90811264E-13  km

 source #           42

   source located in slice            3
                  in element         1683

   using moment tensor source:
     xi coordinate of source in that element:  -0.75288491147628633
     eta coordinate of source in that element:   0.69298295409554778
     gamma coordinate of source in that element:  -0.45805433780787397

   source time function:
     using (quasi) Heaviside source time function

     half duration:    16.199999999999999       seconds
     time shift:    51.200000000000003       seconds

   magnitude of the source:
        scalar moment M0 =    2.8951873339575108E+027  dyne-cm
     moment magnitude Mw =    7.6077844467508378


   original (requested) position of the source:

         latitude:    39.409599999999998
        longitude:    142.51130000000001
            depth:    29.579999999999998       km

   position of the source that will be used:

         latitude:    39.409600000000005
        longitude:    142.51130000000001
            depth:    29.580000000002332       km

   Error in location of the source:    1.58162253E-12  km

 source #           43

   source located in slice            3
                  in element         1686

   using moment tensor source:
     xi coordinate of source in that element:  -0.28657924206674051
     eta coordinate of source in that element:  -0.51776843925770466
     gamma coordinate of source in that element:  -0.18298346019907141

   source time function:
     using (quasi) Heaviside source time function

     half duration:    14.800000000000001       seconds
     time shift:    51.399999999999999       seconds

   magnitude of the source:
        scalar moment M0 =    1.3151767771672369E+027  dyne-cm
     moment magnitude Mw =    7.3793227544508220


   original (requested) position of the source:

         latitude:    38.186500000000002
        longitude:    143.01159999999999
            depth:    8.8710000000000004       km

   position of the source that will be used:

         latitude:    38.186500000000009
        longitude:    143.01159999999999
            depth:    8.8710000000017626       km

   Error in location of the source:    1.73258066E-12  km

 source #           44

   source located in slice            3
                  in element         1686

   using moment tensor source:
     xi coordinate of source in that element:  -0.80224053785402472
     eta coordinate of source in that element:  -0.78186310373889145
     gamma coordinate of source in that element:  -0.18297258149192780

   source time function:
     using (quasi) Heaviside source time function

     half duration:    14.400000000000000       seconds
     time shift:    53.399999999999999       seconds

   magnitude of the source:
        scalar moment M0 =    1.6432564866143084E+027  dyne-cm
     moment magnitude Mw =    7.4438035701973853


   original (requested) position of the source:

         latitude:    38.968800000000002
        longitude:    143.27850000000001
            depth:    8.8710000000000004       km

   position of the source that will be used:

         latitude:    38.968800000000009
        longitude:    143.27850000000001
            depth:    8.8710000000003486       km

   Error in location of the source:    7.90811264E-13  km

 source #           45

   source located in slice            3
                  in element         1686

   using moment tensor source:
     xi coordinate of source in that element:  -0.45874213510707468
     eta coordinate of source in that element:  -0.60558703009042003
     gamma coordinate of source in that element:  -0.18297768038647194

   source time function:
     using (quasi) Heaviside source time function

     half duration:    14.199999999999999       seconds
     time shift:    54.000000000000000       seconds

   magnitude of the source:
        scalar moment M0 =    1.8915561160060782E+027  dyne-cm
     moment magnitude Mw =    7.4845461532353816


   original (requested) position of the source:

         latitude:    38.447299999999998
        longitude:    143.10050000000001
            depth:    8.8710000000000004       km

   position of the source that will be used:

         latitude:    38.447300000000020
        longitude:    143.10050000000001
            depth:    8.8710000000010574       km

   Error in location of the source:    1.00030596E-12  km

 source #           46

   source located in slice            3
                  in element         1685

   using moment tensor source:
     xi coordinate of source in that element:   0.57455592809572686
     eta coordinate of source in that element:  -0.50620895855930759
     gamma coordinate of source in that element:    5.9879847009372392E-002

   source time function:
     using (quasi) Heaviside source time function

     half duration:    8.5999999999999996       seconds
     time shift:    54.200000000000003       seconds

   magnitude of the source:
        scalar moment M0 =    4.2595761068444360E+027  dyne-cm
     moment magnitude Mw =    7.7195775881939603


   original (requested) position of the source:

         latitude:    37.278399999999998
        longitude:    142.01300000000001
            depth:    24.399999999999999       km

   position of the source that will be used:

         latitude:    37.278400000000005
        longitude:    142.01300000000001
            depth:    24.399999999996844       km

   Error in location of the source:    1.73258066E-12  km

 source #           47

   source located in slice            3
                  in element         1683

   using moment tensor source:
     xi coordinate of source in that element:  -0.23624933780832702
     eta coordinate of source in that element:   0.95310476195823690
     gamma coordinate of source in that element:  -0.45805608040858303

   source time function:
     using (quasi) Heaviside source time function

     half duration:    12.199999999999999       seconds
     time shift:    54.200000000000003       seconds

   magnitude of the source:
        scalar moment M0 =    6.0315283614520140E+027  dyne-cm
     moment magnitude Mw =    7.8202849162019064


   original (requested) position of the source:

         latitude:    38.627299999999998
        longitude:    142.24440000000001
            depth:    29.579999999999998       km

   position of the source that will be used:

         latitude:    38.627300000000012
        longitude:    142.24440000000001
            depth:    29.579999999999504       km

   Error in location of the source:    7.07323089E-13  km

 source #           48

   source located in slice            3
                  in element         1683

   using moment tensor source:
     xi coordinate of source in that element:  -0.69090402034480047
     eta coordinate of source in that element:   0.99923307199197620
     gamma coordinate of source in that element:   0.57780946870969530

   source time function:
     using (quasi) Heaviside source time function

     half duration:    14.000000000000000       seconds
     time shift:    55.399999999999999       seconds

   magnitude of the source:
        scalar moment M0 =    4.2329251895113846E+027  dyne-cm
     moment magnitude Mw =    7.7177603953667209


   original (requested) position of the source:

         latitude:    39.058799999999998
        longitude:    142.85040000000001
            depth:    19.219999999999999       km

   position of the source that will be used:

         latitude:    39.058800000000005
        longitude:    142.85040000000001
            depth:    19.220000000001253       km

   Error in location of the source:    1.62068080E-12  km

 source #           49

   source located in slice            3
                  in element         1683

   using moment tensor source:
     xi coordinate of source in that element:  -0.87056584097291256
     eta coordinate of source in that element:   0.49692436325986211
     gamma coordinate of source in that element:  -0.97498819127002201

   source time function:
     using (quasi) Heaviside source time function

     half duration:    10.199999999999999       seconds
     time shift:    56.000000000000000       seconds

   magnitude of the source:
        scalar moment M0 =    5.9519401399879678E+026  dyne-cm
     moment magnitude Mw =    7.1497723698411129


   original (requested) position of the source:

         latitude:    39.715400000000002
        longitude:    142.38669999999999
            depth:    34.750000000000000       km

   position of the source that will be used:

         latitude:    39.715400000000017
        longitude:    142.38669999999999
            depth:    34.749999999998401       km

   Error in location of the source:    1.62068080E-12  km

 source #           50

   source located in slice            3
                  in element         1685

   using moment tensor source:
     xi coordinate of source in that element:   0.33809146491233211
     eta coordinate of source in that element:  -0.90097620544358614
     gamma coordinate of source in that element:  -0.97498789065244262

   source time function:
     using (quasi) Heaviside source time function

     half duration:    12.000000000000000       seconds
     time shift:    56.200000000000003       seconds

   magnitude of the source:
        scalar moment M0 =    3.8102285344845135E+027  dyne-cm
     moment magnitude Mw =    7.6873006833968667


   original (requested) position of the source:

         latitude:    37.890000000000001
        longitude:    141.76320000000001
            depth:    34.750000000000000       km

   position of the source that will be used:

         latitude:    37.890000000000022
        longitude:    141.76320000000001
            depth:    34.750000000000526       km

   Error in location of the source:    2.12196927E-12  km

 source #           51

   source located in slice            3
                  in element         1685

   using moment tensor source:
     xi coordinate of source in that element:   0.69223875224764186
     eta coordinate of source in that element:  -0.30808169653987960
     gamma coordinate of source in that element:   0.57781530261149505

   source time function:
     using (quasi) Heaviside source time function

     half duration:    11.000000000000000       seconds
     time shift:    56.600000000000001       seconds

   magnitude of the source:
        scalar moment M0 =    3.3562356725951174E+027  dyne-cm
     moment magnitude Mw =    7.6505682993944681


   original (requested) position of the source:

         latitude:    36.972600000000000
        longitude:    142.13800000000001
            depth:    19.219999999999999       km

   position of the source that will be used:

         latitude:    36.972600000000014
        longitude:    142.13800000000001
            depth:    19.219999999999132       km

   Error in location of the source:    7.07323089E-13  km

 source #           52

   source located in slice            3
                  in element         1683

   using moment tensor source:
     xi coordinate of source in that element:  -0.40876257285407663
     eta coordinate of source in that element:   0.86666265574991652
     gamma coordinate of source in that element:  -0.45805427407413174

   source time function:
     using (quasi) Heaviside source time function

     half duration:    12.600000000000000       seconds
     time shift:    57.200000000000003       seconds

   magnitude of the source:
        scalar moment M0 =    5.1289094757072873E+027  dyne-cm
     moment magnitude Mw =    7.7733500226113605


   original (requested) position of the source:

         latitude:    38.888100000000001
        longitude:    142.33340000000001
            depth:    29.579999999999998       km

   position of the source that will be used:

         latitude:    38.888100000000001
        longitude:    142.33340000000001
            depth:    29.580000000000211       km

   Error in location of the source:    7.90811264E-13  km

 source #           53

   source located in slice            3
                  in element         1686

   using moment tensor source:
     xi coordinate of source in that element:   0.28841833940050565
     eta coordinate of source in that element:  -0.36786822120772783
     gamma coordinate of source in that element:  -0.87363750750050273

   source time function:
     using (quasi) Heaviside source time function

     half duration:    18.600000000000001       seconds
     time shift:    57.200000000000003       seconds

   magnitude of the source:
        scalar moment M0 =    3.2894683225408930E+027  dyne-cm
     moment magnitude Mw =    7.6447504723422881


   original (requested) position of the source:

         latitude:    37.449199999999998
        longitude:    142.53030000000001
            depth:    14.050000000000001       km

   position of the source that will be used:

         latitude:    37.449200000000012
        longitude:    142.53030000000001
            depth:    14.050000000001644       km

   Error in location of the source:    1.73258066E-12  km

 source #           54

   source located in slice            3
                  in element         1683

   using moment tensor source:
     xi coordinate of source in that element:  -0.92481386291941425
     eta coordinate of source in that element:   0.60588835390224627
     gamma coordinate of source in that element:  -0.45805828753897160

   source time function:
     using (quasi) Heaviside source time function

     half duration:    10.400000000000000       seconds
     time shift:    57.799999999999997       seconds

   magnitude of the source:
        scalar moment M0 =    1.0124739256148773E+027  dyne-cm
     moment magnitude Mw =    7.3035892317220750


   original (requested) position of the source:

         latitude:    39.670499999999997
        longitude:    142.60079999999999
            depth:    29.579999999999998       km

   position of the source that will be used:

         latitude:    39.670500000000004
        longitude:    142.60079999999999
            depth:    29.579999999999504       km

   Error in location of the source:    1.41464618E-12  km

 source #           55

   source located in slice            3
                  in element         1686

   using moment tensor source:
     xi coordinate of source in that element:   0.63564426851649003
     eta coordinate of source in that element:  -0.19542842761924065
     gamma coordinate of source in that element:  -0.87363080813430072

   source time function:
     using (quasi) Heaviside source time function

     half duration:    13.199999999999999       seconds
     time shift:    58.399999999999999       seconds

   magnitude of the source:
        scalar moment M0 =    3.5793386127886815E+027  dyne-cm
     moment magnitude Mw =    7.6692018569893357


   original (requested) position of the source:

         latitude:    36.927599999999998
        longitude:    142.35200000000000
            depth:    14.050000000000001       km

   position of the source that will be used:

         latitude:    36.927599999999998
        longitude:    142.35200000000000
            depth:    14.049999999999523       km

   Error in location of the source:    1.62068080E-12  km

 source #           56

   source located in slice            3
                  in element         1683

   using moment tensor source:
     xi coordinate of source in that element:  -0.69864108808352154
     eta coordinate of source in that element:   0.58369935171783249
     gamma coordinate of source in that element:  -0.97498994221088042

   source time function:
     using (quasi) Heaviside source time function

     half duration:    14.800000000000001       seconds
     time shift:    59.200000000000003       seconds

   magnitude of the source:
        scalar moment M0 =    2.1606791444358413E+027  dyne-cm
     moment magnitude Mw =    7.5230601866691167


   original (requested) position of the source:

         latitude:    39.454599999999999
        longitude:    142.29750000000001
            depth:    34.750000000000000       km

   position of the source that will be used:

         latitude:    39.454600000000013
        longitude:    142.29750000000001
            depth:    34.750000000001940       km

   Error in location of the source:    2.26453882E-12  km

 source #           57

   source located in slice            3
                  in element         1685

   using moment tensor source:
     xi coordinate of source in that element:   0.51185910737284213
     eta coordinate of source in that element:  -0.81602044066805668
     gamma coordinate of source in that element:  -0.97498630364432071

   source time function:
     using (quasi) Heaviside source time function

     half duration:    12.000000000000000       seconds
     time shift:    59.799999999999997       seconds

   magnitude of the source:
        scalar moment M0 =    3.1751684750576619E+027  dyne-cm
     moment magnitude Mw =    7.6345111826594412


   original (requested) position of the source:

         latitude:    37.629199999999997
        longitude:    141.67400000000001
            depth:    34.750000000000000       km

   position of the source that will be used:

         latitude:    37.629200000000019
        longitude:    141.67400000000001
            depth:    34.749999999999815       km

   Error in location of the source:    1.27514481E-12  km

 source #           58

   source located in slice            3
                  in element           25

   using moment tensor source:
     xi coordinate of source in that element:  -0.41842947836892902
     eta coordinate of source in that element:   0.45030949696899636
     gamma coordinate of source in that element:   0.28635776697988141

   source time function:
     using (quasi) Heaviside source time function

     half duration:    16.199999999999999       seconds
     time shift:    59.799999999999997       seconds

   magnitude of the source:
        scalar moment M0 =    3.6035314942428348E+027  dyne-cm
     moment magnitude Mw =    7.6711522147138709


   original (requested) position of the source:

         latitude:    39.283799999999999
        longitude:    141.78010000000000
            depth:    45.109999999999999       km

   position of the source that will be used:

         latitude:    39.283800000000014
        longitude:    141.78010000000000
            depth:    45.110000000000902       km

   Error in location of the source:    1.06098463E-12  km

 source #           59

   source located in slice            3
                  in element         1685

   using moment tensor source:
     xi coordinate of source in that element:   0.74853176698555624
     eta coordinate of source in that element:  -0.42087943305807862
     gamma coordinate of source in that element:    5.9876711098658809E-002

   source time function:
     using (quasi) Heaviside source time function

     half duration:    11.800000000000001       seconds
     time shift:    60.000000000000000       seconds

   magnitude of the source:
        scalar moment M0 =    2.3487114275704451E+027  dyne-cm
     moment magnitude Mw =    7.5472197738890650


   original (requested) position of the source:

         latitude:    37.017600000000002
        longitude:    141.92390000000000
            depth:    24.399999999999999       km

   position of the source that will be used:

         latitude:    37.017600000000016
        longitude:    141.92390000000000
            depth:    24.400000000001086       km

   Error in location of the source:    1.22511951E-12  km

 source #           60

   source located in slice            3
                  in element           25

   using moment tensor source:
     xi coordinate of source in that element:   -1.9098318745669151E-002
     eta coordinate of source in that element:   0.51023431315970280
     gamma coordinate of source in that element:   -7.8581621877111860E-002

   source time function:
     using (quasi) Heaviside source time function

     half duration:    11.600000000000000       seconds
     time shift:    60.799999999999997       seconds

   magnitude of the source:
        scalar moment M0 =    2.3590102712790383E+027  dyne-cm
     moment magnitude Mw =    7.5484865545567921


   original (requested) position of the source:

         latitude:    38.807299999999998
        longitude:    141.38820000000001
            depth:    50.280000000000001       km

   position of the source that will be used:

         latitude:    38.807300000000019
        longitude:    141.38820000000001
            depth:    50.280000000001216       km

   Error in location of the source:    1.73258066E-12  km

 source #           61

   source located in slice            3
                  in element           25

   using moment tensor source:
     xi coordinate of source in that element:   0.10041983037343895
     eta coordinate of source in that element:   0.70598780215587065
     gamma coordinate of source in that element:   0.28636436104397606

   source time function:
     using (quasi) Heaviside source time function

     half duration:    15.400000000000000       seconds
     time shift:    61.200000000000003       seconds

   magnitude of the source:
        scalar moment M0 =    3.4183754262807361E+027  dyne-cm
     moment magnitude Mw =    7.6558798385346982


   original (requested) position of the source:

         latitude:    38.501500000000000
        longitude:    141.51300000000001
            depth:    45.109999999999999       km

   position of the source that will be used:

         latitude:    38.501500000000021
        longitude:    141.51300000000001
            depth:    45.110000000002316       km

   Error in location of the source:    2.03163094E-12  km

 source #           62

   source located in slice            3
                  in element         1685

   using moment tensor source:
     xi coordinate of source in that element:  -0.51896556799034665
     eta coordinate of source in that element:  -0.91327268331407863
     gamma coordinate of source in that element:   0.57781210843000164

   source time function:
     using (quasi) Heaviside source time function

     half duration:    16.800000000000001       seconds
     time shift:    61.600000000000001       seconds

   magnitude of the source:
        scalar moment M0 =    5.1406494458385315E+027  dyne-cm
     moment magnitude Mw =    7.7740119928096547


   original (requested) position of the source:

         latitude:    38.798000000000002
        longitude:    142.76140000000001
            depth:    19.219999999999999       km

   position of the source that will be used:

         latitude:    38.798000000000023
        longitude:    142.76140000000001
            depth:    19.219999999999835       km

   Error in location of the source:    0.00000000      km

 source #           63

   source located in slice            3
                  in element           25

   using moment tensor source:
     xi coordinate of source in that element:   0.67594814171386075
     eta coordinate of source in that element:   0.84692284956823949
     gamma coordinate of source in that element:   -7.8571158247496858E-002

   source time function:
     using (quasi) Heaviside source time function

     half duration:    9.8000000000000007       seconds
     time shift:    61.799999999999997       seconds

   magnitude of the source:
        scalar moment M0 =    1.9623570394362494E+027  dyne-cm
     moment magnitude Mw =    7.4951853517234674


   original (requested) position of the source:

         latitude:    37.764099999999999
        longitude:    141.03180000000000
            depth:    50.280000000000001       km

   position of the source that will be used:

         latitude:    37.764100000000013
        longitude:    141.03180000000000
            depth:    50.279999999999795       km

   Error in location of the source:    0.00000000      km

 source #           64

   source located in slice            3
                  in element         1683

   using moment tensor source:
     xi coordinate of source in that element:  -0.86267231413984613
     eta coordinate of source in that element:   0.91159509603328293
     gamma coordinate of source in that element:   0.57780963145449127

   source time function:
     using (quasi) Heaviside source time function

     half duration:    16.600000000000001       seconds
     time shift:    62.600000000000001       seconds

   magnitude of the source:
        scalar moment M0 =    2.5748561571474241E+027  dyne-cm
     moment magnitude Mw =    7.5738353149629205


   original (requested) position of the source:

         latitude:    39.319600000000001
        longitude:    142.93969999999999
            depth:    19.219999999999999       km

   position of the source that will be used:

         latitude:    39.319600000000015
        longitude:    142.93969999999996
            depth:    19.220000000001253       km

   Error in location of the source:    2.23675202E-12  km

 source #           65

   source located in slice            3
                  in element           25

   using moment tensor source:
     xi coordinate of source in that element:   0.32797127370728552
     eta coordinate of source in that element:   0.67904097069525859
     gamma coordinate of source in that element:   -7.8574848967316313E-002

   source time function:
     using (quasi) Heaviside source time function

     half duration:    11.600000000000000       seconds
     time shift:    63.399999999999999       seconds

   magnitude of the source:
        scalar moment M0 =    1.0547470711976402E+027  dyne-cm
     moment magnitude Mw =    7.3154322187430836


   original (requested) position of the source:

         latitude:    38.285699999999999
        longitude:    141.20990000000000
            depth:    50.280000000000001       km

   position of the source that will be used:

         latitude:    38.285699999999999
        longitude:    141.20990000000000
            depth:    50.279999999999795       km

   Error in location of the source:    0.00000000      km

 source #           66

   source located in slice            3
                  in element         1685

   using moment tensor source:
     xi coordinate of source in that element:   0.92275784309946640
     eta coordinate of source in that element:  -0.33578032506150679
     gamma coordinate of source in that element:    5.9868353170893895E-002

   source time function:
     using (quasi) Heaviside source time function

     half duration:    8.8000000000000007       seconds
     time shift:    64.000000000000000       seconds

   magnitude of the source:
        scalar moment M0 =    7.3306090142634133E+026  dyne-cm
     moment magnitude Mw =    7.2100933710474244


   original (requested) position of the source:

         latitude:    36.756799999999998
        longitude:    141.83480000000000
            depth:    24.399999999999999       km

   position of the source that will be used:

         latitude:    36.756800000000013
        longitude:    141.83480000000000
            depth:    24.400000000000379       km

   Error in location of the source:    1.58162253E-12  km

 source #           67

   source located in slice            3
                  in element           25

   using moment tensor source:
     xi coordinate of source in that element:   0.15425740983981004
     eta coordinate of source in that element:   0.59482918048674616
     gamma coordinate of source in that element:   -7.8578382610767397E-002

   source time function:
     using (quasi) Heaviside source time function

     half duration:    10.800000000000001       seconds
     time shift:    64.599999999999994       seconds

   magnitude of the source:
        scalar moment M0 =    1.9473367800665607E+027  dyne-cm
     moment magnitude Mw =    7.4929607110719907


   original (requested) position of the source:

         latitude:    38.546500000000002
        longitude:    141.29920000000001
            depth:    50.280000000000001       km

   position of the source that will be used:

         latitude:    38.546500000000009
        longitude:    141.29920000000001
            depth:    50.279999999998388       km

   Error in location of the source:    1.22511951E-12  km

 source #           68

   source located in slice            3
                  in element         1686

   using moment tensor source:
     xi coordinate of source in that element:  -0.91808717960379060
     eta coordinate of source in that element:  -0.97933279236505488
     gamma coordinate of source in that element:  -0.87364387671096244

   source time function:
     using (quasi) Heaviside source time function

     half duration:    11.199999999999999       seconds
     time shift:    64.599999999999994       seconds

   magnitude of the source:
        scalar moment M0 =    2.4828039974996008E+027  dyne-cm
     moment magnitude Mw =    7.5632949573069510


   original (requested) position of the source:

         latitude:    39.274700000000003
        longitude:    143.15379999999999
            depth:    14.050000000000001       km

   position of the source that will be used:

         latitude:    39.274700000000031
        longitude:    143.15379999999999
            depth:    14.050000000002353       km

   Error in location of the source:    2.37243385E-12  km

 source #           69

   source located in slice            3
                  in element         1685

   using moment tensor source:
     xi coordinate of source in that element:   0.63034770967253695
     eta coordinate of source in that element:  -0.61866449878184371
     gamma coordinate of source in that element:  -0.45805568210125452

   source time function:
     using (quasi) Heaviside source time function

     half duration:    12.400000000000000       seconds
     time shift:    64.599999999999994       seconds

   magnitude of the source:
        scalar moment M0 =    3.6825072710383066E+027  dyne-cm
     moment magnitude Mw =    7.6774290753476286


   original (requested) position of the source:

         latitude:    37.323399999999999
        longitude:    141.79900000000001
            depth:    29.579999999999998       km

   position of the source that will be used:

         latitude:    37.323400000000014
        longitude:    141.79900000000001
            depth:    29.580000000000211       km

   Error in location of the source:    0.00000000      km

 source #           70

   source located in slice            3
                  in element         1685

   using moment tensor source:
     xi coordinate of source in that element:   0.28289877367626465
     eta coordinate of source in that element:  -0.78922935430410790
     gamma coordinate of source in that element:  -0.45805329304736342

   source time function:
     using (quasi) Heaviside source time function

     half duration:    15.000000000000000       seconds
     time shift:    65.000000000000000       seconds

   magnitude of the source:
        scalar moment M0 =    5.7923725398147523E+027  dyne-cm
     moment magnitude Mw =    7.8085709906599980


   original (requested) position of the source:

         latitude:    37.844999999999999
        longitude:    141.97720000000001
            depth:    29.579999999999998       km

   position of the source that will be used:

         latitude:    37.845000000000013
        longitude:    141.97720000000001
            depth:    29.580000000002332       km

   Error in location of the source:    1.62068080E-12  km

 source #           71

   source located in slice            3
                  in element           25

[...]
    in slice            3  in element         1748
    at xi,eta,gamma coordinates =  -0.53979036192824048       0.17141200284191443        1.0000000000000000
    at lat/lon =    35.3499985       137.029007

 Station #           2 : IC.BJT
        original latitude:    40.0182991
       original longitude:    116.167900
      epicentral distance:    20.3645878
   closest estimate found:    1.15420895E-04  km away
    in slice            1  in element         1800
    at xi,eta,gamma coordinates =   0.80384276066853166       0.15157495146404693        1.0000000000000000
    at lat/lon =    40.0182991       116.167900

 Station #           3 : IC.MDJ
        original latitude:    44.6170006
       original longitude:    129.590805
      epicentral distance:    11.4589348
   closest estimate found:    1.49563231E-04  km away
    in slice            1  in element         1708
    at xi,eta,gamma coordinates =   0.45348537448327336       0.99696112718269925        1.0000000000000000
    at lat/lon =    44.6170006       129.590805

 Station #           4 : IC.SSE
        original latitude:    31.0948009
       original longitude:    121.190804
      epicentral distance:    18.8225803
   closest estimate found:    2.87888746E-04  km away
    in slice            1  in element         1902
    at xi,eta,gamma coordinates =  -0.85459218498936096      -0.31196416546334221        1.0000000000000000
    at lat/lon =    31.0948009       121.190804

 Station #           5 : II.ERM
        original latitude:    42.0149994
       original longitude:    143.157196
      epicentral distance:    3.73831630
   closest estimate found:    7.36416114E-05  km away
    in slice            3  in element         1652
    at xi,eta,gamma coordinates =  -0.36958563270922101      -0.28699451935534426        1.0000000000000000
    at lat/lon =    42.0149994       143.157196

 Station #           6 : IU.ADK
        original latitude:    51.8823013
       original longitude:   -176.684204
      epicentral distance:    31.4788513
   closest estimate found:    3.41431587E-04  km away
    in slice            2  in element         1850
    at xi,eta,gamma coordinates =  -0.52803246773475643      -0.98972140170782119        1.0000000000000000
    at lat/lon =    51.8823013       183.315796

 Station #           7 : IU.BILL
        original latitude:    68.0653000
       original longitude:    166.453094
      epicentral distance:    32.6408882
   closest estimate found:    9.78170545E-04  km away
    in slice            0  in element         1866
    at xi,eta,gamma coordinates =   0.81622823856460580       0.65925667653825482        1.0000000000000000
    at lat/lon =    68.0653000       166.453094

 Station #           8 : IU.GUMO
        original latitude:    13.5893002
       original longitude:    144.868393
      epicentral distance:    24.7330818
   closest estimate found:    3.15205404E-03  km away
    in slice            3  in element         1890
    at xi,eta,gamma coordinates =   0.71832769065430413       0.81758543343373202        1.0000000000000000
    at lat/lon =    13.5893002       144.868393

 Station #           9 : IU.INCN
        original latitude:    37.4776001
       original longitude:    126.623901
      epicentral distance:    12.4691257
   closest estimate found:    4.63304896E-05  km away
    in slice            1  in element         1806
    at xi,eta,gamma coordinates =  -0.38874760118647972       0.30674558001311136        1.0000000000000000
    at lat/lon =    37.4776001       126.623901

 Station #          10 : IU.MAJO
        original latitude:    36.5457001
       original longitude:    138.204102
      epicentral distance:    3.75905824
   closest estimate found:    2.22573217E-04  km away
    in slice            3  in element         1716
    at xi,eta,gamma coordinates =   0.37098737565143525       0.16861010267145501        1.0000000000000000
    at lat/lon =    36.5457001       138.204102

 Station #          11 : IU.TATO
        original latitude:    24.9734993
       original longitude:    121.497101
      epicentral distance:    22.1345596
   closest estimate found:    1.28979780E-04  km away
    in slice            1  in element         1936
    at xi,eta,gamma coordinates =   0.83918528210025412        8.6933213265947912E-002   1.0000000000000000
    at lat/lon =    24.9734993       121.497101

 Station #          12 : IU.WAKE
        original latitude:    19.2833996
       original longitude:    166.651993
      epicentral distance:    28.3635788
   closest estimate found:    1.28139378E-04  km away
    in slice            3  in element         1674
    at xi,eta,gamma coordinates =  -0.65038936968885441      -0.82685558748116961        1.0000000000000000
    at lat/lon =    19.2833996       166.651993

 Station #          13 : IU.YSS
        original latitude:    46.9586983
       original longitude:    142.760406
      epicentral distance:    8.63707447
   closest estimate found:    7.54150533E-05  km away
    in slice            2  in element         2130
    at xi,eta,gamma coordinates =  -0.84491208467995604      -0.79281830276065068        1.0000000000000000
    at lat/lon =    46.9586983       142.760406

 Station #          14 : PS.OGS
        original latitude:    27.0569992
       original longitude:    142.203003
      epicentral distance:    11.2340508
   closest estimate found:    3.36267462E-04  km away
    in slice            3  in element         1786
    at xi,eta,gamma coordinates =    9.0945691166965520E-002  0.50048186941572925        1.0000000000000000
    at lat/lon =    27.0569992       142.203003

 maximum error in location of all the receivers:    3.15205404E-03  km

 Elapsed time for receiver detection in seconds =    1.9480000000000053E-003

 End of receiver detection - done


 found a total of           14  receivers in all slices
 this total is okay

 source arrays:
   number of sources is          239
   size of source array                 =   0.341892242     MB
                                        =    3.33879143E-04 GB

 seismograms:
   seismograms written by all processes
   writing out seismograms at every NTSTEP_BETWEEN_OUTPUT_SEISMOS =         2300
   maximum number of local receivers is            6  in slice            3
   size of maximum seismogram array       =   0.157928467     MB
                                          =    1.54227018E-04 GB


 Total number of samples for seismograms =         2300

 Using          239  point sources

 Reference radius of the globe used is    6371.0000000000000       km


 no oceans

 no ellipticity

 no surface topography

 no self-gravitation

 no rotation

 no attenuation



 preparing mass matrices
 preparing constants
 preparing gravity arrays
 preparing elastic element arrays
   crust/mantle transverse isotropic and isotropic elements
   tiso elements =         2160
   iso elements  =            0
   inner core isotropic elements
 preparing wavefields
   allocating wavefields
   initializing wavefields
 preparing number of runs
   number of runs    :            1
   number of this run:            1
   time stepping     : begin/end =            1 /        2300
 preparing absorbing boundaries
 preparing optimized arrays
   using force vectorization
   using Deville products
   inverse table of ibool done
   fusing arrays:
     size of fused arrays =    10.0421906     MB
                          =    9.80682671E-03 GB
   fused arrays done
   bandwidth test (STREAM TRIAD):
      memory accesses =    5.06898880     MB
      timing  min/max =    6.30000024E-04 s /    6.73000002E-04 s
      timing      avg =    6.50000002E-04 s
      bandwidth       =    7.61566830     GB/s


 Elapsed time for preparing timerun in seconds =   0.193067998


 time loop:

               scheme:         Newmark
            time step:   0.115000002      s
 number of time steps:         2300
   current time steps:            1  to         2300
 total simulated time:    4.09141684      minutes
 start time          :  -18.8999996      seconds

 All processes are synchronized before time loop

 Starting time iteration loop...

 Time step #            5
 Time:  -0.307333320      minutes
 Max norm displacement vector U in solid in all slices for forward prop. (m) =    1.41939709E-05
 Max non-dimensional potential Ufluid in fluid in all slices for forward prop. =    0.00000000
 Elapsed time in seconds =   0.10554799999999998
 Elapsed time in hh:mm:ss =      0 h 00 m 00 s
 Mean elapsed time per time step in seconds =    2.1109599999999996E-002
 Time steps done =            5  out of         2300
 Time steps remaining =         2295
 Estimated remaining time in seconds =    48.446531999999991
 Estimated remaining time in hh:mm:ss =      0 h 00 m 48 s
 Estimated total run time in seconds =    48.552079999999989
 Estimated total run time in hh:mm:ss =      0 h 00 m 48 s
 We have done   0.217391297     % of that
 The run will finish approximately on (in local time): Fri Jul 24, 2020 00:29
 ************************************************************
 **** BEWARE: the above time estimates are not very reliable
 **** because fewer than 100 iterations have been performed
 ************************************************************

 Time step #          200
 Time:    6.64166659E-02  minutes
 Max norm displacement vector U in solid in all slices for forward prop. (m) =   0.839527369
 Max non-dimensional potential Ufluid in fluid in all slices for forward prop. =    0.00000000
 Elapsed time in seconds =    4.6925169999999996
 Elapsed time in hh:mm:ss =      0 h 00 m 04 s
 Mean elapsed time per time step in seconds =    2.3462584999999998E-002
 Time steps done =          200  out of         2300
 Time steps remaining =         2100
 Estimated remaining time in seconds =    49.271428499999992
 Estimated remaining time in hh:mm:ss =      0 h 00 m 49 s
 Estimated total run time in seconds =    53.963945499999994
 Estimated total run time in hh:mm:ss =      0 h 00 m 53 s
 We have done    8.69565201     % of that
 The run will finish approximately on (in local time): Fri Jul 24, 2020 00:29

 Time step #          400
 Time:   0.449750006      minutes
 Max norm displacement vector U in solid in all slices for forward prop. (m) =    5.16772223
 Max non-dimensional potential Ufluid in fluid in all slices for forward prop. =    0.00000000
 Elapsed time in seconds =    9.7968900000000012
 Elapsed time in hh:mm:ss =      0 h 00 m 09 s
 Mean elapsed time per time step in seconds =    2.4492225000000003E-002
 Time steps done =          400  out of         2300
 Time steps remaining =         1900
 Estimated remaining time in seconds =    46.535227500000005
 Estimated remaining time in hh:mm:ss =      0 h 00 m 46 s
 Estimated total run time in seconds =    56.332117500000010
 Estimated total run time in hh:mm:ss =      0 h 00 m 56 s
 We have done    17.3913040     % of that
 The run will finish approximately on (in local time): Fri Jul 24, 2020 00:29

 Time step #          600
 Time:   0.833083332      minutes
 Max norm displacement vector U in solid in all slices for forward prop. (m) =    8.91591740
 Max non-dimensional potential Ufluid in fluid in all slices for forward prop. =    0.00000000
 Elapsed time in seconds =    14.808180000000000
 Elapsed time in hh:mm:ss =      0 h 00 m 14 s
 Mean elapsed time per time step in seconds =    2.4680299999999999E-002
 Time steps done =          600  out of         2300
 Time steps remaining =         1700
 Estimated remaining time in seconds =    41.956509999999994
 Estimated remaining time in hh:mm:ss =      0 h 00 m 41 s
 Estimated total run time in seconds =    56.764689999999995
 Estimated total run time in hh:mm:ss =      0 h 00 m 56 s
 We have done    26.0869560     % of that
 The run will finish approximately on (in local time): Fri Jul 24, 2020 00:29

 Time step #          800
 Time:    1.21641672      minutes
 Max norm displacement vector U in solid in all slices for forward prop. (m) =    13.0357933
 Max non-dimensional potential Ufluid in fluid in all slices for forward prop. =    0.00000000
 Elapsed time in seconds =    19.328692999999998
 Elapsed time in hh:mm:ss =      0 h 00 m 19 s
 Mean elapsed time per time step in seconds =    2.4160866249999996E-002
 Time steps done =          800  out of         2300
 Time steps remaining =         1500
 Estimated remaining time in seconds =    36.241299374999997
 Estimated remaining time in hh:mm:ss =      0 h 00 m 36 s
 Estimated total run time in seconds =    55.569992374999998
 Estimated total run time in hh:mm:ss =      0 h 00 m 55 s
 We have done    34.7826080     % of that
 The run will finish approximately on (in local time): Fri Jul 24, 2020 00:29

 Time step #         1000
 Time:    1.59975004      minutes
 Max norm displacement vector U in solid in all slices for forward prop. (m) =    12.9795828
 Max non-dimensional potential Ufluid in fluid in all slices for forward prop. =    3.15734909E-38
 Elapsed time in seconds =    23.705316000000000
 Elapsed time in hh:mm:ss =      0 h 00 m 23 s
 Mean elapsed time per time step in seconds =    2.3705316000000001E-002
 Time steps done =         1000  out of         2300
 Time steps remaining =         1300
 Estimated remaining time in seconds =    30.816910800000002
 Estimated remaining time in hh:mm:ss =      0 h 00 m 30 s
 Estimated total run time in seconds =    54.522226799999999
 Estimated total run time in hh:mm:ss =      0 h 00 m 54 s
 We have done    43.4782600     % of that
 The run will finish approximately on (in local time): Fri Jul 24, 2020 00:29

 Time step #         1200
 Time:    1.98308337      minutes
 Max norm displacement vector U in solid in all slices for forward prop. (m) =    13.1113491
 Max non-dimensional potential Ufluid in fluid in all slices for forward prop. =    7.35075997E-33
 Elapsed time in seconds =    28.135310999999998
 Elapsed time in hh:mm:ss =      0 h 00 m 28 s
 Mean elapsed time per time step in seconds =    2.3446092499999998E-002
 Time steps done =         1200  out of         2300
 Time steps remaining =         1100
 Estimated remaining time in seconds =    25.790701749999997
 Estimated remaining time in hh:mm:ss =      0 h 00 m 25 s
 Estimated total run time in seconds =    53.926012749999998
 Estimated total run time in hh:mm:ss =      0 h 00 m 53 s
 We have done    52.1739120     % of that
 The run will finish approximately on (in local time): Fri Jul 24, 2020 00:28

 Time step #         1400
 Time:    2.36641669      minutes
 Max norm displacement vector U in solid in all slices for forward prop. (m) =    13.0715981
 Max non-dimensional potential Ufluid in fluid in all slices for forward prop. =    5.23317657E-29
 Elapsed time in seconds =    32.634018000000005
 Elapsed time in hh:mm:ss =      0 h 00 m 32 s
 Mean elapsed time per time step in seconds =    2.3310012857142862E-002
 Time steps done =         1400  out of         2300
 Time steps remaining =          900
 Estimated remaining time in seconds =    20.979011571428575
 Estimated remaining time in hh:mm:ss =      0 h 00 m 20 s
 Estimated total run time in seconds =    53.613029571428584
 Estimated total run time in hh:mm:ss =      0 h 00 m 53 s
 We have done    60.8695641     % of that
 The run will finish approximately on (in local time): Fri Jul 24, 2020 00:28

 Time step #         1600
 Time:    2.74974990      minutes
 Max norm displacement vector U in solid in all slices for forward prop. (m) =    13.0526009
 Max non-dimensional potential Ufluid in fluid in all slices for forward prop. =    1.28777389E-25
 Elapsed time in seconds =    36.905825000000000
 Elapsed time in hh:mm:ss =      0 h 00 m 36 s
 Mean elapsed time per time step in seconds =    2.3066140624999999E-002
 Time steps done =         1600  out of         2300
 Time steps remaining =          700
 Estimated remaining time in seconds =    16.146298437500000
 Estimated remaining time in hh:mm:ss =      0 h 00 m 16 s
 Estimated total run time in seconds =    53.052123437500001
 Estimated total run time in hh:mm:ss =      0 h 00 m 53 s
 We have done    69.5652161     % of that
 The run will finish approximately on (in local time): Fri Jul 24, 2020 00:28

 Time step #         1800
 Time:    3.13308334      minutes
 Max norm displacement vector U in solid in all slices for forward prop. (m) =    13.0280876
 Max non-dimensional potential Ufluid in fluid in all slices for forward prop. =    1.52515490E-22
 Elapsed time in seconds =    41.192555000000006
 Elapsed time in hh:mm:ss =      0 h 00 m 41 s
 Mean elapsed time per time step in seconds =    2.2884752777777781E-002
 Time steps done =         1800  out of         2300
 Time steps remaining =          500
 Estimated remaining time in seconds =    11.442376388888890
 Estimated remaining time in hh:mm:ss =      0 h 00 m 11 s
 Estimated total run time in seconds =    52.634931388888894
 Estimated total run time in hh:mm:ss =      0 h 00 m 52 s
 We have done    78.2608719     % of that
 The run will finish approximately on (in local time): Fri Jul 24, 2020 00:28

 Time step #         2000
 Time:    3.51641655      minutes
 Max norm displacement vector U in solid in all slices for forward prop. (m) =    13.0041456
 Max non-dimensional potential Ufluid in fluid in all slices for forward prop. =    9.55459911E-20
 Elapsed time in seconds =    45.435751000000003
 Elapsed time in hh:mm:ss =      0 h 00 m 45 s
 Mean elapsed time per time step in seconds =    2.2717875500000002E-002
 Time steps done =         2000  out of         2300
 Time steps remaining =          300
 Estimated remaining time in seconds =    6.8153626500000009
 Estimated remaining time in hh:mm:ss =      0 h 00 m 06 s
 Estimated total run time in seconds =    52.251113650000008
 Estimated total run time in hh:mm:ss =      0 h 00 m 52 s
 We have done    86.9565201     % of that
 The run will finish approximately on (in local time): Fri Jul 24, 2020 00:28

 Time step #         2200
 Time:    3.89974999      minutes
 Max norm displacement vector U in solid in all slices for forward prop. (m) =    12.9891949
 Max non-dimensional potential Ufluid in fluid in all slices for forward prop. =    2.30698714E-16
 Elapsed time in seconds =    49.702902000000002
 Elapsed time in hh:mm:ss =      0 h 00 m 49 s
 Mean elapsed time per time step in seconds =    2.2592228181818181E-002
 Time steps done =         2200  out of         2300
 Time steps remaining =          100
 Estimated remaining time in seconds =    2.2592228181818181
 Estimated remaining time in hh:mm:ss =      0 h 00 m 02 s
 Estimated total run time in seconds =    51.962124818181820
 Estimated total run time in hh:mm:ss =      0 h 00 m 51 s
 We have done    95.6521759     % of that
 The run will finish approximately on (in local time): Fri Jul 24, 2020 00:28

 Time step #         2300
 Time:    4.09141684      minutes
 Max norm displacement vector U in solid in all slices for forward prop. (m) =    13.0448914
 Max non-dimensional potential Ufluid in fluid in all slices for forward prop. =    5.72683583E-14
 Elapsed time in seconds =    51.835839000000000
 Elapsed time in hh:mm:ss =      0 h 00 m 51 s
 Mean elapsed time per time step in seconds =    2.2537321304347827E-002
 Time steps done =         2300  out of         2300
 Time steps remaining =            0
 Estimated remaining time in seconds =    0.0000000000000000
 Estimated remaining time in hh:mm:ss =      0 h 00 m 00 s
 Estimated total run time in seconds =    51.835839000000000
 Estimated total run time in hh:mm:ss =      0 h 00 m 51 s
 We have done    100.000000     % of that


 Total number of time steps written:         2300

 Writing the seismograms in parallel took    7.5127999999999417E-002  seconds

 Time-Loop Complete. Timing info:
 Total elapsed time in seconds =    51.932113000000001
 Total elapsed time in hh:mm:ss =      0 h 00 m 51 s

 finalizing simulation

 End of the simulation

