
 ******************************
 **** Specfem3D MPI Solver ****
 ******************************

 Version: 7.0.0

 Fixing slow underflow trapping problem using small initial field

 There are  4  MPI processes
 Processes are numbered from 0 to  3

 There are  48  elements along xi in each chunk
 There are  48  elements along eta in each chunk

 There are  2  slices along xi in each chunk
 There are  2  slices along eta in each chunk
 There is a total of  4  slices in each chunk
 There are  1  chunks
 There is a total of  4  slices in all the chunks

 NDIM =  3

 NGLLX =  5
 NGLLY =  5
 NGLLZ =  5

 using single precision for the calculations

 smallest and largest possible floating-point numbers are:  1.175494351E-38,  3.402823466E+38

 model: 1D_isotropic_prem
   incorporating the oceans using equivalent load
   incorporating ellipticity
   incorporating surface topography
   incorporating self-gravitation (Cowling approximation)
   incorporating rotation
   incorporating attenuation using  3  standard linear solids

   no 3-D lateral variations
   no heterogeneities in the mantle
   no crustal variations
   using unmodified 1D crustal model with two layers
   no transverse isotropy
   no inner-core anisotropy
   no general mantle anisotropy


 incorporates ATTENUATION for time-reversed simulation

 mesh databases:
   reading in crust/mantle databases...
   reading in outer core databases...
   reading in inner core databases...
   reading in coupling surface databases...
   reading in addressing...
   reading in MPI databases...
   for overlapping of communications with calculations:

   percentage of edge elements in crust/mantle  14.714715 %
   percentage of volume elements in crust/mantle  85.2852859 %

   percentage of edge elements in outer core  36.625515 %
   percentage of volume elements in outer core  63.374485 %

   percentage of edge elements in inner core  55.5555534 %
   percentage of volume elements in inner core  44.4444466 %

   reading in Stacey databases...

 Elapsed time for reading mesh in seconds =  0.409266949

 topography:
   topography/bathymetry: min/max =  -7747,  5507

 Elapsed time for reading topo/bathy in seconds =  0.772698164


 sources:

 *************************************
  locating source  1
 *************************************

 source located in slice  0
                in element  1

    xi coordinate of source in that element:  -1.1000000000000001
   eta coordinate of source in that element:  -1.1000000000000001
 gamma coordinate of source in that element:  -1.1000000000000001

 Source time function is a Heaviside, convolve later


  half duration:  0.  seconds
     time shift:  0.  seconds

 magnitude of the source:
      scalar moment M0 =  0.  dyne-cm
   moment magnitude Mw =  0.


 original (requested) position of the source:

       latitude:  0.
      longitude:  0.
          depth:  0.  km

 position of the source that will be used:

       latitude:  30.591150190349605
      longitude:  14.94375064121698
          depth:  43.256340245358423  km

 Error in location of the source:  3669.39478  km

 *****************************************************
 *****************************************************
 ***** WARNING: source location estimate is poor *****
 *****************************************************
 *****************************************************

 maximum error in location of the sources:  3669.39478  km


 Elapsed time for detection of sources in seconds =  3.662109375E-3

 End of source detection - done

 noise simulation will ignore CMT sources

 receivers:

 Total number of receivers =  1


 ********************
  locating receivers
 ********************

 reading receiver information...

 Stations sorted by epicentral distance:
 Station #     1:                   GE.ZKR    epicentral distance:     10.497499 degrees

 maximum error in location of all the receivers:  1.581622528E-12  km

 Elapsed time for receiver detection in seconds =  3.25911045074462891E-2

 End of receiver detection - done


      3  adjoint component traces found in all slices

 found a total of  1  receivers in all slices
 this total is okay

 source arrays:
   number of sources is  1
   size of source array                 =  1.430511475E-3 MB
                                        =  1.396983862E-6 GB

 seismograms:
   seismograms written by all processes
   writing out seismograms at every NTSTEP_BETWEEN_OUTPUT_SEISMOS =  3599
   maximum number of local receivers is  1  in slice  2
   size of maximum seismogram array       =  4.118728638E-2 MB
                                          =  4.022195935E-5 GB

 adjoint source arrays:
   reading adjoint sources at every NTSTEP_BETWEEN_READ_ADJSRC =  3599
   using asynchronous buffer for file I/O of adjoint sources
   maximum number of local adjoint sources is  1  in slice  2
   size of maximum adjoint source array =  5.1484108 MB
                                        =  5.027744919E-3 GB


 Total number of samples for seismograms =  3599


 Reference radius of the Earth used is  6371.  km


 incorporating the oceans using equivalent load

 incorporating ellipticity

 incorporating surface topography

 incorporating self-gravitation (Cowling approximation)

 incorporating rotation

 incorporating attenuation using  3  standard linear solids
 mimicking effects on velocity only



 preparing mass matrices
 preparing constants
 preparing gravity arrays
 preparing attenuation
 preparing wavefields
 preparing absorbing boundaries
 preparing noise arrays
   NOISE_TOMOGRAPHY =  3
   timing:
     start time           =  0.  seconds
     time step            =  0.169056863  s
     number of time steps =  3599
   ignoring CMT sources
   reconstructing ensemble forward wavefield
   noise source uses ensemble adjoint sources


 Elapsed time for preparing timerun in seconds =  0.509171963


 time loop:

               scheme:         Newmark
            time step:  0.169056863  s
 number of time steps:  3599
 total simulated time:  10.1377773  minutes
 start time          : 0.  seconds

 All processes are synchronized before time loop

 Starting time iteration loop...

 Time step #  5
 Time:  1.127045788E-2  minutes
 Max norm displacement vector U in solid in all slices for adjoint prop. (m)=  0.
 Max non-dimensional potential Ufluid in fluid in all slices for adjoint prop. =  1.000478069E-24
 Max norm displacement vector U in solid in all slices for back prop.(m) =  1.422998497E-9
 Max non-dimensional potential Ufluid in fluid in all slices for back prop.=  2.412395466E-22
 Max of strain, eps_trace_over_3_crust_mantle = 3.448980405E-22
 Max of strain, epsilondev_crust_mantle  = 4.602999091E-22
 Elapsed time in seconds =  2.6376438140869141
 Elapsed time in hh:mm:ss =      0 h 00 m 02 s
 Mean elapsed time per time step in seconds =  0.52752876281738281
 Time steps done =  5  out of  3599
 Time steps remaining =  3594
 Estimated remaining time in seconds =  1895.9383735656738
 Estimated remaining time in hh:mm:ss =      0 h 31 m 35 s
 Estimated total run time in seconds =  1898.5760173797607
 Estimated total run time in hh:mm:ss =      0 h 31 m 38 s
 We have done  0.138927475 % of that
 The run will finish approximately on (in local time): Wed Jul 15, 2015 22:58
 ************************************************************
 **** BEWARE: the above time estimates are not reliable
 **** because fewer than 100 iterations have been performed
 ************************************************************

 Time step #  500
 Time:  1.40598965  minutes
 Max norm displacement vector U in solid in all slices for adjoint prop. (m)=  0.
 Max non-dimensional potential Ufluid in fluid in all slices for adjoint prop. =  1.089065867E-24
 Max norm displacement vector U in solid in all slices for back prop.(m) =  1.742804567E-9
 Max non-dimensional potential Ufluid in fluid in all slices for back prop.=  7.104302083E-23
 Max of strain, eps_trace_over_3_crust_mantle = 4.31820743E-22
 Max of strain, epsilondev_crust_mantle  = 5.959053259E-22
 Elapsed time in seconds =  165.03686690330505
 Elapsed time in hh:mm:ss =      0 h 02 m 45 s
 Mean elapsed time per time step in seconds =  0.33007373380661009
 Time steps done =  500  out of  3599
 Time steps remaining =  3099
 Estimated remaining time in seconds =  1022.8985010666847
 Estimated remaining time in hh:mm:ss =      0 h 17 m 02 s
 Estimated total run time in seconds =  1187.9353679699898
 Estimated total run time in hh:mm:ss =      0 h 19 m 47 s
 We have done  13.8927479 % of that
 The run will finish approximately on (in local time): Wed Jul 15, 2015 22:46

 Time step #  1000
 Time:  2.81479692  minutes
 Max norm displacement vector U in solid in all slices for adjoint prop. (m)=  0.
 Max non-dimensional potential Ufluid in fluid in all slices for adjoint prop. =  1.194790682E-24
 Max norm displacement vector U in solid in all slices for back prop.(m) =  2.346032479E-9
 Max non-dimensional potential Ufluid in fluid in all slices for back prop.=  6.04292129E-23
 Max of strain, eps_trace_over_3_crust_mantle = 4.905227481E-22
 Max of strain, epsilondev_crust_mantle  = 6.114587851E-22
 Elapsed time in seconds =  350.54572296142578
 Elapsed time in hh:mm:ss =      0 h 05 m 50 s
 Mean elapsed time per time step in seconds =  0.35054572296142578
 Time steps done =  1000  out of  3599
 Time steps remaining =  2599
 Estimated remaining time in seconds =  911.06833397674563
 Estimated remaining time in hh:mm:ss =      0 h 15 m 11 s
 Estimated total run time in seconds =  1261.6140569381714
 Estimated total run time in hh:mm:ss =      0 h 21 m 01 s
 We have done  27.7854958 % of that
 The run will finish approximately on (in local time): Wed Jul 15, 2015 22:47

 Time step #  1500
 Time:  4.2236042  minutes
 Max norm displacement vector U in solid in all slices for adjoint prop. (m)=  0.
 Max non-dimensional potential Ufluid in fluid in all slices for adjoint prop. =  1.32562346E-24
 Max norm displacement vector U in solid in all slices for back prop.(m) =  4.000251241E-9
 Max non-dimensional potential Ufluid in fluid in all slices for back prop.=  4.125444976E-23
 Max of strain, eps_trace_over_3_crust_mantle = 3.679711238E-22
 Max of strain, epsilondev_crust_mantle  = 5.578650646E-22
 Elapsed time in seconds =  524.44252490997314
 Elapsed time in hh:mm:ss =      0 h 08 m 44 s
 Mean elapsed time per time step in seconds =  0.3496283499399821
 Time steps done =  1500  out of  3599
 Time steps remaining =  2099
 Estimated remaining time in seconds =  733.86990652402244
 Estimated remaining time in hh:mm:ss =      0 h 12 m 13 s
 Estimated total run time in seconds =  1258.3124314339957
 Estimated total run time in hh:mm:ss =      0 h 20 m 58 s
 We have done  41.6782455 % of that
 The run will finish approximately on (in local time): Wed Jul 15, 2015 22:47

 Time step #  2000
 Time:  5.63241148  minutes
 Max norm displacement vector U in solid in all slices for adjoint prop. (m)=  2.676411136E+9
 Max non-dimensional potential Ufluid in fluid in all slices for adjoint prop. =  1.446705721E-24
 Max norm displacement vector U in solid in all slices for back prop.(m) =  4.16054613E-9
 Max non-dimensional potential Ufluid in fluid in all slices for back prop.=  1.680674154E-23
 Max of strain, eps_trace_over_3_crust_mantle = 65230.9844
 Max of strain, epsilondev_crust_mantle  = 131154.375
 Elapsed time in seconds =  695.69441485404968
 Elapsed time in hh:mm:ss =      0 h 11 m 35 s
 Mean elapsed time per time step in seconds =  0.34784720742702485
 Time steps done =  2000  out of  3599
 Time steps remaining =  1599
 Estimated remaining time in seconds =  556.20768467581274
 Estimated remaining time in hh:mm:ss =      0 h 09 m 16 s
 Estimated total run time in seconds =  1251.9020995298624
 Estimated total run time in hh:mm:ss =      0 h 20 m 51 s
 We have done  55.5709915 % of that
 The run will finish approximately on (in local time): Wed Jul 15, 2015 22:47

 Time step #  2500
 Time:  7.04121876  minutes
 Max norm displacement vector U in solid in all slices for adjoint prop. (m)=  9.612231475E+10
 Max non-dimensional potential Ufluid in fluid in all slices for adjoint prop. =  4.123201219E-24
 Max norm displacement vector U in solid in all slices for back prop.(m) =  1.602449062E-9
 Max non-dimensional potential Ufluid in fluid in all slices for back prop.=  1.154335627E-24
 Max of strain, eps_trace_over_3_crust_mantle = 2183097.
 Max of strain, epsilondev_crust_mantle  = 4651248.
 Elapsed time in seconds =  854.17153787612915
 Elapsed time in hh:mm:ss =      0 h 14 m 14 s
 Mean elapsed time per time step in seconds =  0.34166861515045166
 Time steps done =  2500  out of  3599
 Time steps remaining =  1099
 Estimated remaining time in seconds =  375.49380805034639
 Estimated remaining time in hh:mm:ss =      0 h 06 m 15 s
 Estimated total run time in seconds =  1229.6653459264755
 Estimated total run time in hh:mm:ss =      0 h 20 m 29 s
 We have done  69.4637375 % of that
 The run will finish approximately on (in local time): Wed Jul 15, 2015 22:46

 Time step #  3000
 Time:  8.45002556  minutes
 Max norm displacement vector U in solid in all slices for adjoint prop. (m)=  7.277916979E+10
 Max non-dimensional potential Ufluid in fluid in all slices for adjoint prop. =  1.491553658E-15
 Max norm displacement vector U in solid in all slices for back prop.(m) =  6.264758157E-10
 Max non-dimensional potential Ufluid in fluid in all slices for back prop.=  1.186677938E-24
 Max of strain, eps_trace_over_3_crust_mantle = 1574207.38
 Max of strain, epsilondev_crust_mantle  = 3443532.
 Elapsed time in seconds =  1008.919716835022
 Elapsed time in hh:mm:ss =      0 h 16 m 48 s
 Mean elapsed time per time step in seconds =  0.33630657227834065
 Time steps done =  3000  out of  3599
 Time steps remaining =  599
 Estimated remaining time in seconds =  201.44763679472607
 Estimated remaining time in hh:mm:ss =      0 h 03 m 21 s
 Estimated total run time in seconds =  1210.3673536297481
 Estimated total run time in hh:mm:ss =      0 h 20 m 10 s
 We have done  83.3564911 % of that
 The run will finish approximately on (in local time): Wed Jul 15, 2015 22:46

 Time step #  3500
 Time:  9.85883331  minutes
 Max norm displacement vector U in solid in all slices for adjoint prop. (m)=  2.363205018E+10
 Max non-dimensional potential Ufluid in fluid in all slices for adjoint prop. =  1.399700704E-4
 Max norm displacement vector U in solid in all slices for back prop.(m) =  9.375848015E-11
 Max non-dimensional potential Ufluid in fluid in all slices for back prop.=  1.162998897E-24
 Max of strain, eps_trace_over_3_crust_mantle = 576843.688
 Max of strain, epsilondev_crust_mantle  = 1459013.5
 Elapsed time in seconds =  1157.1034569740295
 Elapsed time in hh:mm:ss =      0 h 19 m 17 s
 Mean elapsed time per time step in seconds =  0.33060098770686563
 Time steps done =  3500  out of  3599
 Time steps remaining =  99
 Estimated remaining time in seconds =  32.729497782979692
 Estimated remaining time in hh:mm:ss =      0 h 00 m 32 s
 Estimated total run time in seconds =  1189.8329547570092
 Estimated total run time in hh:mm:ss =      0 h 19 m 49 s
 We have done  97.2492371 % of that
 The run will finish approximately on (in local time): Wed Jul 15, 2015 22:47

 Time step #  3599
 Time:  10.1377773  minutes
 Max norm displacement vector U in solid in all slices for adjoint prop. (m)=  2.141156147E+10
 Max non-dimensional potential Ufluid in fluid in all slices for adjoint prop. =  4.775830894E-4
 Max norm displacement vector U in solid in all slices for back prop.(m) =  2.89131631E-12
 Max non-dimensional potential Ufluid in fluid in all slices for back prop.=  1.334617362E-24
 Max of strain, eps_trace_over_3_crust_mantle = 531664.125
 Max of strain, epsilondev_crust_mantle  = 1424402.13
 Elapsed time in seconds =  1179.6255178451538
 Elapsed time in hh:mm:ss =      0 h 19 m 39 s
 Mean elapsed time per time step in seconds =  0.32776480073496905
 Time steps done =  3599  out of  3599
 Time steps remaining =  0
 Estimated remaining time in seconds =  0.
 Estimated remaining time in hh:mm:ss =      0 h 00 m 00 s
 Estimated total run time in seconds =  1179.6255178451538
 Estimated total run time in hh:mm:ss =      0 h 19 m 39 s
 We have done  100. % of that


 Total number of time steps written:  3599

 Writing the seismograms in parallel took  2.1862030029296875E-2  seconds

 Time-Loop Complete. Timing info:
 Total elapsed time in seconds =  1179.8260359764099
 Total elapsed time in hh:mm:ss =      0 h 19 m 39 s

 End of the simulation

