
 ******************************
 **** Specfem3D MPI Solver ****
 ******************************


 Fixing slow underflow trapping problem using small initial field

 There are  4  MPI processes
 Processes are numbered from 0 to  3

 There are  48  elements along xi in each chunk
 There are  48  elements along eta in each chunk

 There are  2  slices along xi in each chunk
 There are  2  slices along eta in each chunk
 There is a total of  4  slices in each chunk
 There are  1  chunks
 There is a total of  4  slices in all the chunks

 NDIM =  3

 NGLLX =  5
 NGLLY =  5
 NGLLZ =  5

 using single precision for the calculations

 smallest and largest possible floating-point numbers are:  1.175494351E-38,  3.402823466E+38

 model: 1D_isotropic_prem
   incorporating the oceans using equivalent load
   incorporating ellipticity
   incorporating surface topography
   incorporating self-gravitation (Cowling approximation)
   incorporating rotation
   incorporating attenuation using  3  standard linear solids

   no 3-D lateral variations
   no heterogeneities in the mantle
   no crustal variations
   using unmodified 1D crustal model with two layers
   no transverse isotropy
   no inner-core anisotropy
   no general mantle anisotropy


 incorporates ATTENUATION for time-reversed simulation

 mesh databases:
   reading in crust/mantle databases...
   reading in outer core databases...
   reading in inner core databases...
   reading in coupling surface databases...
   reading in addressing...
   reading in MPI databases...
   for overlapping of communications with calculations:

   percentage of edge elements in crust/mantle  14.714715 %
   percentage of volume elements in crust/mantle  85.2852859 %

   percentage of edge elements in outer core  36.625515 %
   percentage of volume elements in outer core  63.374485 %

   percentage of edge elements in inner core  55.5555534 %
   percentage of volume elements in inner core  44.4444466 %

   reading in Stacey databases...

 Elapsed time for reading mesh in seconds =  1.19604897

 topography:
   topography/bathymetry: min/max =  -7747,  5507

 Elapsed time for reading topo/bathy in seconds =  0.299071074


 sources:

 *************************************
  locating source  1
 *************************************

 source located in slice  0
                in element  1

    xi coordinate of source in that element:  -1.1000000000000001
   eta coordinate of source in that element:  -1.1000000000000001
 gamma coordinate of source in that element:  -1.1000000000000001

 Source time function is a Heaviside, convolve later


  half duration:  0.  seconds
     time shift:  0.  seconds

 magnitude of the source:
      scalar moment M0 =  0.  dyne-cm
   moment magnitude Mw =  0.


 original (requested) position of the source:

       latitude:  0.
      longitude:  0.
          depth:  0.  km

 position of the source that will be used:

       latitude:  30.591150190349605
      longitude:  14.94375064121698
          depth:  43.256340245358423  km

 Error in location of the source:  3669.39478  km

 *****************************************************
 *****************************************************
 ***** WARNING: source location estimate is poor *****
 *****************************************************
 *****************************************************

 maximum error in location of the sources:  3669.39478  km


 Elapsed time for detection of sources in seconds =  2.18040943145751953E-2

 End of source detection - done

 noise simulation will ignore CMT sources

 receivers:

 Total number of receivers =  1


 ********************
  locating receivers
 ********************

 reading receiver information...

 Stations sorted by epicentral distance:
 Station #     1:                   GE.ZKR    epicentral distance:     10.497499 degrees

 maximum error in location of all the receivers:  1.581622528E-12  km

 Elapsed time for receiver detection in seconds =  5.19390106201171875E-2

 End of receiver detection - done


      3  adjoint component traces found in all slices

 found a total of  1  receivers in all slices
 this total is okay

 source arrays:
   number of sources is  1
   size of source array                 =  1.430511475E-3 MB
                                        =  1.396983862E-6 GB

 seismograms:
   seismograms written by all processes
   writing out seismograms at every NTSTEP_BETWEEN_OUTPUT_SEISMOS =  3599
   maximum number of local receivers is  1  in slice  2
   size of maximum seismogram array       =  4.118728638E-2 MB
                                          =  4.022195935E-5 GB

 adjoint source arrays:
   reading adjoint sources at every NTSTEP_BETWEEN_READ_ADJSRC =  3599
   using asynchronous buffer for file I/O of adjoint sources
   maximum number of local adjoint sources is  1  in slice  2
   size of maximum adjoint source array =  5.1484108 MB
                                        =  5.027744919E-3 GB


 Total number of samples for seismograms =  3599


 Reference radius of the Earth used is  6371.  km


 incorporating the oceans using equivalent load

 incorporating ellipticity

 incorporating surface topography

 incorporating self-gravitation (Cowling approximation)

 incorporating rotation

 incorporating attenuation using  3  standard linear solids
 mimicking effects on velocity only



 preparing mass matrices
 preparing constants
 preparing gravity arrays
 preparing attenuation
 preparing wavefields
 preparing absorbing boundaries
 preparing noise arrays
   NOISE_TOMOGRAPHY =  3
   timing:
     start time           =  0.  seconds
     time step            =  0.169376865  s
     number of time steps =  3599
   ignoring CMT sources
   reconstructing ensemble forward wavefield
   noise source uses ensemble adjoint sources


 Elapsed time for preparing timerun in seconds =  1.05206203


 time loop:

               scheme:         Newmark
            time step:  0.169376865  s
 number of time steps:  3599
 total simulated time:  10.1569653  minutes
 start time          : 0.  seconds

 All processes are synchronized before time loop

 Starting time iteration loop...

 Time step #  5
 Time:  1.129179075E-2  minutes
 Max norm displacement vector U in solid in all slices for adjoint prop. (m)=  0.
 Max non-dimensional potential Ufluid in fluid in all slices for adjoint prop. =  1.000479647E-24
 Max norm displacement vector U in solid in all slices for back prop.(m) =  1.417956863E-9
 Max non-dimensional potential Ufluid in fluid in all slices for back prop.=  2.404348075E-22
 Max of strain, eps_trace_over_3_crust_mantle = 3.457315572E-22
 Max of strain, epsilondev_crust_mantle  = 4.6140179E-22
 Elapsed time in seconds =  3.2798199653625488
 Elapsed time in hh:mm:ss =      0 h 00 m 03 s
 Mean elapsed time per time step in seconds =  0.65596399307250985
 Time steps done =  5  out of  3599
 Time steps remaining =  3594
 Estimated remaining time in seconds =  2357.5345911026002
 Estimated remaining time in hh:mm:ss =      0 h 39 m 17 s
 Estimated total run time in seconds =  2360.8144110679627
 Estimated total run time in hh:mm:ss =      0 h 39 m 20 s
 We have done  0.138927475 % of that
 The run will finish approximately on (in local time): Mon Jul 06, 2015 15:54
 ************************************************************
 **** BEWARE: the above time estimates are not reliable
 **** because fewer than 100 iterations have been performed
 ************************************************************

 Time step #  500
 Time:  1.40865088  minutes
 Max norm displacement vector U in solid in all slices for adjoint prop. (m)=  0.
 Max non-dimensional potential Ufluid in fluid in all slices for adjoint prop. =  1.089243361E-24
 Max norm displacement vector U in solid in all slices for back prop.(m) =  1.661174309E-9
 Max non-dimensional potential Ufluid in fluid in all slices for back prop.=  6.767186477E-23
 Max of strain, eps_trace_over_3_crust_mantle = 4.706063452E-22
 Max of strain, epsilondev_crust_mantle  = 6.582922833E-22
 Elapsed time in seconds =  165.58866310119629
 Elapsed time in hh:mm:ss =      0 h 02 m 45 s
 Mean elapsed time per time step in seconds =  0.3311773262023926
 Time steps done =  500  out of  3599
 Time steps remaining =  3099
 Estimated remaining time in seconds =  1026.3185339012146
 Estimated remaining time in hh:mm:ss =      0 h 17 m 06 s
 Estimated total run time in seconds =  1191.9071970024108
 Estimated total run time in hh:mm:ss =      0 h 19 m 51 s
 We have done  13.8927479 % of that
 The run will finish approximately on (in local time): Mon Jul 06, 2015 15:35

 Time step #  1000
 Time:  2.82012463  minutes
 Max norm displacement vector U in solid in all slices for adjoint prop. (m)=  0.
 Max non-dimensional potential Ufluid in fluid in all slices for adjoint prop. =  1.195270309E-24
 Max norm displacement vector U in solid in all slices for back prop.(m) =  2.316827841E-9
 Max non-dimensional potential Ufluid in fluid in all slices for back prop.=  5.898124924E-23
 Max of strain, eps_trace_over_3_crust_mantle = 4.054466112E-22
 Max of strain, epsilondev_crust_mantle  = 5.023829752E-22
 Elapsed time in seconds =  329.97946810722351
 Elapsed time in hh:mm:ss =      0 h 05 m 29 s
 Mean elapsed time per time step in seconds =  0.32997946810722351
 Time steps done =  1000  out of  3599
 Time steps remaining =  2599
 Estimated remaining time in seconds =  857.61663761067393
 Estimated remaining time in hh:mm:ss =      0 h 14 m 17 s
 Estimated total run time in seconds =  1187.5961057178974
 Estimated total run time in hh:mm:ss =      0 h 19 m 47 s
 We have done  27.7854958 % of that
 The run will finish approximately on (in local time): Mon Jul 06, 2015 15:35

 Time step #  1500
 Time:  4.23159838  minutes
 Max norm displacement vector U in solid in all slices for adjoint prop. (m)=  0.
 Max non-dimensional potential Ufluid in fluid in all slices for adjoint prop. =  1.326200315E-24
 Max norm displacement vector U in solid in all slices for back prop.(m) =  3.962218997E-9
 Max non-dimensional potential Ufluid in fluid in all slices for back prop.=  3.971587438E-23
 Max of strain, eps_trace_over_3_crust_mantle = 2.886076273E-22
 Max of strain, epsilondev_crust_mantle  = 5.574737896E-22
 Elapsed time in seconds =  490.22282791137695
 Elapsed time in hh:mm:ss =      0 h 08 m 10 s
 Mean elapsed time per time step in seconds =  0.32681521860758461
 Time steps done =  1500  out of  3599
 Time steps remaining =  2099
 Estimated remaining time in seconds =  685.98514385732005
 Estimated remaining time in hh:mm:ss =      0 h 11 m 25 s
 Estimated total run time in seconds =  1176.207971768697
 Estimated total run time in hh:mm:ss =      0 h 19 m 36 s
 We have done  41.6782455 % of that
 The run will finish approximately on (in local time): Mon Jul 06, 2015 15:34

 Time step #  2000
 Time:  5.64307261  minutes
 Max norm displacement vector U in solid in all slices for adjoint prop. (m)=  2.589719808E+9
 Max non-dimensional potential Ufluid in fluid in all slices for adjoint prop. =  1.448065914E-24
 Max norm displacement vector U in solid in all slices for back prop.(m) =  4.145987109E-9
 Max non-dimensional potential Ufluid in fluid in all slices for back prop.=  1.770581105E-23
 Max of strain, eps_trace_over_3_crust_mantle = 56377.2266
 Max of strain, epsilondev_crust_mantle  = 122568.563
 Elapsed time in seconds =  650.19733500480652
 Elapsed time in hh:mm:ss =      0 h 10 m 50 s
 Mean elapsed time per time step in seconds =  0.32509866750240329
 Time steps done =  2000  out of  3599
 Time steps remaining =  1599
 Estimated remaining time in seconds =  519.83276933634272
 Estimated remaining time in hh:mm:ss =      0 h 08 m 39 s
 Estimated total run time in seconds =  1170.0301043411491
 Estimated total run time in hh:mm:ss =      0 h 19 m 30 s
 We have done  55.5709915 % of that
 The run will finish approximately on (in local time): Mon Jul 06, 2015 15:35

 Time step #  2500
 Time:  7.05454636  minutes
 Max norm displacement vector U in solid in all slices for adjoint prop. (m)=  9.762228634E+10
 Max non-dimensional potential Ufluid in fluid in all slices for adjoint prop. =  3.149136875E-24
 Max norm displacement vector U in solid in all slices for back prop.(m) =  1.599505195E-9
 Max non-dimensional potential Ufluid in fluid in all slices for back prop.=  1.174526127E-24
 Max of strain, eps_trace_over_3_crust_mantle = 2013013.
 Max of strain, epsilondev_crust_mantle  = 4492840.
 Elapsed time in seconds =  802.82801294326782
 Elapsed time in hh:mm:ss =      0 h 13 m 22 s
 Mean elapsed time per time step in seconds =  0.32113120517730714
 Time steps done =  2500  out of  3599
 Time steps remaining =  1099
 Estimated remaining time in seconds =  352.92319448986058
 Estimated remaining time in hh:mm:ss =      0 h 05 m 52 s
 Estimated total run time in seconds =  1155.7512074331285
 Estimated total run time in hh:mm:ss =      0 h 19 m 15 s
 We have done  69.4637375 % of that
 The run will finish approximately on (in local time): Mon Jul 06, 2015 15:35

 Time step #  3000
 Time:  8.46601963  minutes
 Max norm displacement vector U in solid in all slices for adjoint prop. (m)=  7.448947917E+10
 Max non-dimensional potential Ufluid in fluid in all slices for adjoint prop. =  1.379548479E-15
 Max norm displacement vector U in solid in all slices for back prop.(m) =  6.145430276E-10
 Max non-dimensional potential Ufluid in fluid in all slices for back prop.=  1.205310241E-24
 Max of strain, eps_trace_over_3_crust_mantle = 1266540.25
 Max of strain, epsilondev_crust_mantle  = 3479507.5
 Elapsed time in seconds =  955.06411504745483
 Elapsed time in hh:mm:ss =      0 h 15 m 55 s
 Mean elapsed time per time step in seconds =  0.31835470501581825
 Time steps done =  3000  out of  3599
 Time steps remaining =  599
 Estimated remaining time in seconds =  190.69446830447512
 Estimated remaining time in hh:mm:ss =      0 h 03 m 10 s
 Estimated total run time in seconds =  1145.7585833519299
 Estimated total run time in hh:mm:ss =      0 h 19 m 05 s
 We have done  83.3564911 % of that
 The run will finish approximately on (in local time): Mon Jul 06, 2015 15:34

 Time step #  3500
 Time:  9.87749386  minutes
 Max norm displacement vector U in solid in all slices for adjoint prop. (m)=  2.296923341E+10
 Max non-dimensional potential Ufluid in fluid in all slices for adjoint prop. =  1.295871771E-4
 Max norm displacement vector U in solid in all slices for back prop.(m) =  9.412074592E-11
 Max non-dimensional potential Ufluid in fluid in all slices for back prop.=  1.184562311E-24
 Max of strain, eps_trace_over_3_crust_mantle = 565301.625
 Max of strain, epsilondev_crust_mantle  = 1427385.
 Elapsed time in seconds =  1123.9018950462341
 Elapsed time in hh:mm:ss =      0 h 18 m 43 s
 Mean elapsed time per time step in seconds =  0.32111482715606693
 Time steps done =  3500  out of  3599
 Time steps remaining =  99
 Estimated remaining time in seconds =  31.790367888450621
 Estimated remaining time in hh:mm:ss =      0 h 00 m 31 s
 Estimated total run time in seconds =  1155.6922629346848
 Estimated total run time in hh:mm:ss =      0 h 19 m 15 s
 We have done  97.2492371 % of that
 The run will finish approximately on (in local time): Mon Jul 06, 2015 15:35

 Time step #  3599
 Time:  10.1569653  minutes
 Max norm displacement vector U in solid in all slices for adjoint prop. (m)=  2.160305357E+10
 Max non-dimensional potential Ufluid in fluid in all slices for adjoint prop. =  5.72216115E-4
 Max norm displacement vector U in solid in all slices for back prop.(m) =  2.873089787E-12
 Max non-dimensional potential Ufluid in fluid in all slices for back prop.=  1.31688367E-24
 Max of strain, eps_trace_over_3_crust_mantle = 515508.594
 Max of strain, epsilondev_crust_mantle  = 1400752.75
 Elapsed time in seconds =  1159.0415389537811
 Elapsed time in hh:mm:ss =      0 h 19 m 19 s
 Mean elapsed time per time step in seconds =  0.32204544010941399
 Time steps done =  3599  out of  3599
 Time steps remaining =  0
 Estimated remaining time in seconds =  0.
 Estimated remaining time in hh:mm:ss =      0 h 00 m 00 s
 Estimated total run time in seconds =  1159.0415389537811
 Estimated total run time in hh:mm:ss =      0 h 19 m 19 s
 We have done  100. % of that


 Total number of time steps written:  3599

 Writing the seismograms in parallel took  2.94768810272216797E-2  seconds

 Time-Loop Complete. Timing info:
 Total elapsed time in seconds =  1159.2908771038055
 Total elapsed time in hh:mm:ss =      0 h 19 m 19 s

 End of the simulation

