
 ******************************
 **** Specfem3D MPI Solver ****
 ******************************

 Version: 7.0.2


 There are            4  MPI processes
 Processes are numbered from 0 to            3

 There are           64  elements along xi in each chunk
 There are           64  elements along eta in each chunk

 There are            2  slices along xi in each chunk
 There are            2  slices along eta in each chunk
 There is a total of            4  slices in each chunk
 There are            1  chunks
 There is a total of            4  slices in all the chunks

 NDIM =            3

 NGLLX =            5
 NGLLY =            5
 NGLLZ =            5

 using single precision for the calculations

 smallest and largest possible floating-point numbers are:    1.17549435E-38   3.40282347E+38

 model: 1D_transversely_isotropic_prem
   incorporating the oceans using equivalent load
   incorporating ellipticity
   incorporating surface topography
   incorporating self-gravitation (Cowling approximation)
   incorporating rotation
   incorporating attenuation using            3  standard linear solids

   no 3-D lateral variations
   no heterogeneities in the mantle
   no crustal variations
   using unmodified 1D crustal model with two layers
   incorporating transverse isotropy
   no inner-core anisotropy
   no general mantle anisotropy


 mesh databases:
   reading in crust/mantle databases...
   reading in outer core databases...
   reading in inner core databases...
   reading in coupling surface databases...
   reading in addressing...
   reading in MPI databases...
   for overlapping of communications with calculations:

   percentage of edge elements in crust/mantle    11.5767050     %
   percentage of volume elements in crust/mantle    88.4232941     %

   percentage of edge elements in outer core    28.3928566     %
   percentage of volume elements in outer core    71.6071472     %

   percentage of edge elements in inner core    43.7500000     %
   percentage of volume elements in inner core    56.2500000     %

   reading in Stacey databases...

 Elapsed time for reading mesh in seconds =   0.245711088

 topography:
   topography/bathymetry: min/max =        -7747        5507

 Elapsed time for reading topo/bathy in seconds =   0.110092878


 sources:           1

 ********************
  locating sources
 ********************


 source #            1

   source located in slice            0
                  in element         2230

   using moment tensor source:
     xi coordinate of source in that element:  -0.46604717525854544
     eta coordinate of source in that element:   0.80859953150115305
     gamma coordinate of source in that element:   0.64750447542801459

   source time function:
     using (quasi) Heaviside source time function

     half duration:    3.0000000000000000       seconds
     time shift:    0.0000000000000000       seconds

   magnitude of the source:
        scalar moment M0 =    2.2605667430978450E+025  dyne-cm
     moment magnitude Mw =    6.2028117467869990


   original (requested) position of the source:

         latitude:    36.979999999999997
        longitude:    22.870000000000001
            depth:    92.390000000000001       km

   position of the source that will be used:

         latitude:    36.980000000000004
        longitude:    22.870000000000005
            depth:    92.390000000001706       km

   Error in location of the source:    1.00030596E-12  km

 maximum error in location of the sources:    1.00030596E-12  km


 Elapsed time for detection of sources in seconds =    4.7950744628906250E-003

 End of source detection - done


 printing the source-time function

 printing the source spectrum

 receivers:

 Total number of receivers =            6


 ********************
  locating receivers
 ********************

 reading receiver information...

 Stations sorted by epicentral distance:
 Station #     6:                  XS.S001    epicentral distance:      0.969061 degrees
 Station #     4:                   HT.LIT    epicentral distance:      3.130283 degrees
 Station #     5:                   GE.ZKR    epicentral distance:      3.289320 degrees
 Station #     2:                  YL.BEKI    epicentral distance:      9.849280 degrees
 Station #     3:                  SR.BGIO    epicentral distance:     11.375245 degrees
 Station #     1:                  IU.GRFO    epicentral distance:     15.247245 degrees

 Station #           1 : IU.GRFO
        original latitude:    49.6908989
       original longitude:    11.2202997
      epicentral distance:    15.2472448
   closest estimate found:    34.1095428      km away
    in slice            2  in element        10368
    at xi,eta,gamma coordinates =  -0.87299983603147002        1.1000000000000001       0.96753092675279340
    at lat/lon =    49.3879395       11.2933893

 maximum error in location of all the receivers:    34.1095428      km

 Elapsed time for receiver detection in seconds =    1.6176939010620117E-002

 End of receiver detection - done


 found a total of            6  receivers in all slices
 this total is okay

 source arrays:
   number of sources is            1
   size of source array                 =    1.43051147E-03 MB
                                        =    1.39698386E-06 GB

 seismograms:
   seismograms written by all processes
   writing out seismograms at every NTSTEP_BETWEEN_OUTPUT_SEISMOS =         1300
   maximum number of local receivers is            2  in slice            0
   size of maximum seismogram array       =    2.97546387E-02 MB
                                          =    2.90572643E-05 GB


 Total number of samples for seismograms =         1300


 Reference radius of the Earth used is    6371.0000000000000       km


 incorporating the oceans using equivalent load

 incorporating ellipticity

 incorporating surface topography

 incorporating self-gravitation (Cowling approximation)

 incorporating rotation

 incorporating attenuation using            3  standard linear solids
   mimicking effects on velocity only



 preparing mass matrices
 preparing constants
 preparing gravity arrays
 preparing attenuation
   attenuation period range min/max:           15 /         866  (s)
   ATTENUATION_1D_WITH_3D_STORAGE  :  T
   ATTENUATION_3D                  :  F
 preparing elastic element arrays
   crust/mantle transverse isotropic and isotropic elements
   tiso elements =         4352
   iso elements  =         6912
   inner core isotropic elements
   iso elements  =           48
 preparing wavefields
   allocating wavefields
   initializing wavefields
 preparing absorbing boundaries
 preparing oceans arrays
   number of global points on oceans =        16641
 preparing optimized arrays
   using force vectorization
   using Deville products
   inverse table of ibool done
   fused array done
   bandwidth test (STREAM TRIAD):
      memory accesses =    25.7635231     MB
      timing  min/max =    2.60496140E-03 s /    2.65192986E-03 s
      timing      avg =    2.62069702E-03 s
      bandwidth       =    9.60038090     GB/s


 Elapsed time for preparing timerun in seconds =   0.862564087


 time loop:

               scheme:         Newmark
            time step:   0.126792654      s
 number of time steps:         1300
 total simulated time:    2.67006087      minutes
 start time          :  -4.50000000      seconds

 All processes are synchronized before time loop

 Starting time iteration loop...

 Time step #            5
 Time:   -6.65471554E-02  minutes
 Max norm displacement vector U in solid in all slices for forward prop. (m) =    5.83892813E-07
 Max non-dimensional potential Ufluid in fluid in all slices for forward prop. =    0.00000000
 Max of strain, eps_trace_over_3_crust_mantle =   0.00000000
 Max of strain, epsilondev_crust_mantle  =   7.77426803E-11
 Elapsed time in seconds =   0.57515716552734375
 Elapsed time in hh:mm:ss =      0 h 00 m 00 s
 Mean elapsed time per time step in seconds =   0.11503143310546875
 Time steps done =            5  out of         1300
 Time steps remaining =         1295
 Estimated remaining time in seconds =    148.96570587158203
 Estimated remaining time in hh:mm:ss =      0 h 02 m 28 s
 Estimated total run time in seconds =    149.54086303710938
 Estimated total run time in hh:mm:ss =      0 h 02 m 29 s
 We have done   0.384615391     % of that
 The run will finish approximately on (in local time): Mon Dec 10, 2018 10:29
 ************************************************************
 **** BEWARE: the above time estimates are not very reliable
 **** because fewer than 100 iterations have been performed
 ************************************************************

 Time step #          200
 Time:   0.345528960      minutes
 Max norm displacement vector U in solid in all slices for forward prop. (m) =    1.10940589E-02
 Max non-dimensional potential Ufluid in fluid in all slices for forward prop. =    0.00000000
 Max of strain, eps_trace_over_3_crust_mantle =   3.02065290E-16
 Max of strain, epsilondev_crust_mantle  =   1.18154594E-06
 Elapsed time in seconds =    30.524682998657227
 Elapsed time in hh:mm:ss =      0 h 00 m 30 s
 Mean elapsed time per time step in seconds =   0.15262341499328613
 Time steps done =          200  out of         1300
 Time steps remaining =         1100
 Estimated remaining time in seconds =    167.88575649261475
 Estimated remaining time in hh:mm:ss =      0 h 02 m 47 s
 Estimated total run time in seconds =    198.41043949127197
 Estimated total run time in hh:mm:ss =      0 h 03 m 18 s
 We have done    15.3846149     % of that
 The run will finish approximately on (in local time): Mon Dec 10, 2018 10:30

 Time step #          400
 Time:   0.768171132      minutes
 Max norm displacement vector U in solid in all slices for forward prop. (m) =    1.15988282E-02
 Max non-dimensional potential Ufluid in fluid in all slices for forward prop. =    0.00000000
 Max of strain, eps_trace_over_3_crust_mantle =   1.26013479E-12
 Max of strain, epsilondev_crust_mantle  =   1.25800261E-06
 Elapsed time in seconds =    60.674815177917480
 Elapsed time in hh:mm:ss =      0 h 01 m 00 s
 Mean elapsed time per time step in seconds =   0.15168703794479371
 Time steps done =          400  out of         1300
 Time steps remaining =          900
 Estimated remaining time in seconds =    136.51833415031433
 Estimated remaining time in hh:mm:ss =      0 h 02 m 16 s
 Estimated total run time in seconds =    197.19314932823181
 Estimated total run time in hh:mm:ss =      0 h 03 m 17 s
 We have done    30.7692299     % of that
 The run will finish approximately on (in local time): Mon Dec 10, 2018 10:30

 Time step #          600
 Time:    1.19081330      minutes
 Max norm displacement vector U in solid in all slices for forward prop. (m) =    1.14619732E-02
 Max non-dimensional potential Ufluid in fluid in all slices for forward prop. =    0.00000000
 Max of strain, eps_trace_over_3_crust_mantle =   3.17174814E-10
 Max of strain, epsilondev_crust_mantle  =   1.25805298E-06
 Elapsed time in seconds =    88.748385190963745
 Elapsed time in hh:mm:ss =      0 h 01 m 28 s
 Mean elapsed time per time step in seconds =   0.14791397531827291
 Time steps done =          600  out of         1300
 Time steps remaining =          700
 Estimated remaining time in seconds =    103.53978272279103
 Estimated remaining time in hh:mm:ss =      0 h 01 m 43 s
 Estimated total run time in seconds =    192.28816791375476
 Estimated total run time in hh:mm:ss =      0 h 03 m 12 s
 We have done    46.1538467     % of that
 The run will finish approximately on (in local time): Mon Dec 10, 2018 10:30

 Time step #          800
 Time:    1.61345553      minutes
 Max norm displacement vector U in solid in all slices for forward prop. (m) =    1.14205834E-02
 Max non-dimensional potential Ufluid in fluid in all slices for forward prop. =    0.00000000
 Max of strain, eps_trace_over_3_crust_mantle =   2.62528665E-10
 Max of strain, epsilondev_crust_mantle  =   1.26032251E-06
 Elapsed time in seconds =    116.18139219284058
 Elapsed time in hh:mm:ss =      0 h 01 m 56 s
 Mean elapsed time per time step in seconds =   0.14522674024105073
 Time steps done =          800  out of         1300
 Time steps remaining =          500
 Estimated remaining time in seconds =    72.613370120525360
 Estimated remaining time in hh:mm:ss =      0 h 01 m 12 s
 Estimated total run time in seconds =    188.79476231336594
 Estimated total run time in hh:mm:ss =      0 h 03 m 08 s
 We have done    61.5384598     % of that
 The run will finish approximately on (in local time): Mon Dec 10, 2018 10:30

 Time step #         1000
 Time:    2.03609776      minutes
 Max norm displacement vector U in solid in all slices for forward prop. (m) =    1.14219505E-02
 Max non-dimensional potential Ufluid in fluid in all slices for forward prop. =    4.57825754E-34
 Max of strain, eps_trace_over_3_crust_mantle =   5.99536087E-10
 Max of strain, epsilondev_crust_mantle  =   1.25725524E-06
 Elapsed time in seconds =    144.60720300674438
 Elapsed time in hh:mm:ss =      0 h 02 m 24 s
 Mean elapsed time per time step in seconds =   0.14460720300674437
 Time steps done =         1000  out of         1300
 Time steps remaining =          300
 Estimated remaining time in seconds =    43.382160902023308
 Estimated remaining time in hh:mm:ss =      0 h 00 m 43 s
 Estimated total run time in seconds =    187.98936390876770
 Estimated total run time in hh:mm:ss =      0 h 03 m 07 s
 We have done    76.9230804     % of that
 The run will finish approximately on (in local time): Mon Dec 10, 2018 10:30

 Time step #         1200
 Time:    2.45873976      minutes
 Max norm displacement vector U in solid in all slices for forward prop. (m) =    1.14137707E-02
 Max non-dimensional potential Ufluid in fluid in all slices for forward prop. =    1.46684401E-30
 Max of strain, eps_trace_over_3_crust_mantle =   1.02997466E-09
 Max of strain, epsilondev_crust_mantle  =   1.25369229E-06
 Elapsed time in seconds =    172.42144918441772
 Elapsed time in hh:mm:ss =      0 h 02 m 52 s
 Mean elapsed time per time step in seconds =   0.14368454098701477
 Time steps done =         1200  out of         1300
 Time steps remaining =          100
 Estimated remaining time in seconds =    14.368454098701477
 Estimated remaining time in hh:mm:ss =      0 h 00 m 14 s
 Estimated total run time in seconds =    186.78990328311920
 Estimated total run time in hh:mm:ss =      0 h 03 m 06 s
 We have done    92.3076935     % of that
 The run will finish approximately on (in local time): Mon Dec 10, 2018 10:30

 Time step #         1300
 Time:    2.67006087      minutes
 Max norm displacement vector U in solid in all slices for forward prop. (m) =    1.14224860E-02
 Max non-dimensional potential Ufluid in fluid in all slices for forward prop. =    6.26962841E-29
 Max of strain, eps_trace_over_3_crust_mantle =   6.18286478E-10
 Max of strain, epsilondev_crust_mantle  =   1.25867859E-06
 Elapsed time in seconds =    186.43147420883179
 Elapsed time in hh:mm:ss =      0 h 03 m 06 s
 Mean elapsed time per time step in seconds =   0.14340882631448598
 Time steps done =         1300  out of         1300
 Time steps remaining =            0
 Estimated remaining time in seconds =    0.0000000000000000
 Estimated remaining time in hh:mm:ss =      0 h 00 m 00 s
 Estimated total run time in seconds =    186.43147420883179
 Estimated total run time in hh:mm:ss =      0 h 03 m 06 s
 We have done    100.000000     % of that


 Total number of time steps written:         1300

 Writing the seismograms in parallel took    1.1941909790039062E-002  seconds

 Time-Loop Complete. Timing info:
 Total elapsed time in seconds =    186.57984519004822
 Total elapsed time in hh:mm:ss =      0 h 03 m 06 s
 finalizing simulation

 End of the simulation

