 
 ******************************
 **** Specfem3D MPI Solver ****
 ******************************
 
 
 Fixing slow underflow trapping problem using small initial field
 
 There are  4  MPI processes
 Processes are numbered from 0 to  3
 
 There are  64  elements along xi in each chunk
 There are  64  elements along eta in each chunk
 
 There are  2  slices along xi in each chunk
 There are  2  slices along eta in each chunk
 There is a total of  4  slices in each chunk
 There are  1  chunks
 There is a total of  4  slices in all the chunks
 
 NDIM =  3
 
 NGLLX =  5
 NGLLY =  5
 NGLLZ =  5
 
 using single precision for the calculations
 
 smallest and largest possible floating-point numbers are:  1.175494351E-38,  3.402823466E+38
 
 model: 1D_transversely_isotropic_prem
   incorporating the oceans using equivalent load
   incorporating ellipticity
   incorporating surface topography
   incorporating self-gravitation (Cowling approximation)
   incorporating rotation
   incorporating attenuation using  3  standard linear solids
 
   no 3-D lateral variations
   no heterogeneities in the mantle
   no crustal variations
   using unmodified 1D crustal model with two layers
   incorporating transverse isotropy
   no inner-core anisotropy
   no general mantle anisotropy
 
 
 mesh databases:
   reading in crust/mantle databases...
   reading in outer core databases...
   reading in inner core databases...
   reading in coupling surface databases...
   reading in addressing...
   reading in MPI databases...
   for overlapping of communications with calculations:
 
   percentage of edge elements in crust/mantle  11.576704 %
   percentage of volume elements in crust/mantle  88.4232941 %
 
   percentage of edge elements in outer core  28.3928585 %
   percentage of volume elements in outer core  71.6071396 %
 
   percentage of edge elements in inner core  43.7500038 %
   percentage of volume elements in inner core  56.2499962 %
 
   reading in Stacey databases...
 
 Elapsed time for reading mesh in seconds =  0.657832146
 
 topography:
   topography/bathymetry: min/max =  -7747,  5507
 
 Elapsed time for reading topo/bathy in seconds =  0.22876811
 
 
 sources:
 
 *************************************
  locating source  1
 *************************************
 
 source located in slice  0
                in element  2230
 
    xi coordinate of source in that element:  -0.46604519233738945
   eta coordinate of source in that element:  0.80859688657801088
 gamma coordinate of source in that element:  0.64750420162694367
 
  half duration:  3.  seconds
     time shift:  0.  seconds
 
 magnitude of the source:
      scalar moment M0 =  2.26056674309784543E+25  dyne-cm
   moment magnitude Mw =  6.202811746786999
 
 
 original (requested) position of the source:
 
       latitude:  36.979999999999997
      longitude:  22.870000000000001
          depth:  92.390000000000001  km
 
 position of the source that will be used:
 
       latitude:  36.980000000000011
      longitude:  22.870000000000008
          depth:  92.390000000002402  km
 
 Error in location of the source:  1.000305958E-12  km
 
 maximum error in location of the sources:  1.000305958E-12  km
 
 
 Elapsed time for detection of sources in seconds =  5.63597679138183594E-3
 
 End of source detection - done
 
 
 receivers:
 
 Total number of receivers =  6
 
 
 ********************
  locating receivers
 ********************
 
 reading receiver information...
 
 Stations sorted by epicentral distance:
 Station #     6:                  XS.S001    epicentral distance:      0.969061 degrees
 Station #     4:                   HT.LIT    epicentral distance:      3.130283 degrees
 Station #     5:                   GE.ZKR    epicentral distance:      3.289320 degrees
 Station #     2:                  YL.BEKI    epicentral distance:      9.849280 degrees
 Station #     3:                  SR.BGIO    epicentral distance:     11.375245 degrees
 Station #     1:                  IU.GRFO    epicentral distance:     15.247245 degrees
 
 Station # 1 : IU.GRFO
      original latitude:  49.6908989
     original longitude:  11.2202997
    epicentral distance:  15.2472448
 closest estimate found:  34.1094856  km away
  in slice  2  in element  10368
  at xi,eta,gamma coordinates =  -0.87300937417040281,  1.1000000000000001,  0.96758691493944515
 
 maximum error in location of all the receivers:  34.1094856  km
 
 Elapsed time for receiver detection in seconds =  4.47938442230224609E-2
 
 End of receiver detection - done
 
 
 found a total of  6  receivers in all slices
 this total is okay
 
 source arrays:
   number of sources is  1
   size of source array                 =  1.430511475E-3 MB
                                        =  1.396983862E-6 GB
 
 seismograms:
   writing out seismograms at every NTSTEP_BETWEEN_OUTPUT_SEISMOS =  1300
   maximum number of local receivers is  2  in slice  1
   size of maximum seismogram array       =  2.975463867E-2 MB
                                          =  2.905726433E-5 GB
 
 
 Total number of samples for seismograms =  1300
 
 
 Reference radius of the Earth used is  6371.  km
 
 
 incorporating the oceans using equivalent load
 
 incorporating ellipticity
 
 incorporating surface topography
 
 incorporating self-gravitation (Cowling approximation)
 
 incorporating rotation
 
 incorporating attenuation using  3  standard linear solids
 mimicking effects on velocity only
 
 
 
 preparing mass matrices
 preparing constants
 preparing gravity arrays
 preparing attenuation
 preparing wavefields
 preparing absorbing boundaries
 
 Elapsed time for preparing timerun in seconds =  0.522983074
 
 
 time loop:
 
               scheme:         Newmark
            time step:  0.127032652  s
 number of time steps:  1300
 total simulated time:  2.67525673  minutes
 start time          : -4.5  seconds
 
 All processes are synchronized before time loop
 
 Starting time iteration loop...
 
 Time step #  5
 Time:  -6.653115898E-2  minutes
 Max norm displacement vector U in solid in all slices for forward prop. (m) =  5.86381816E-7
 Max non-dimensional potential Ufluid in fluid in all slices for forward prop. =  1.000372263E-24
 Max of strain, eps_trace_over_3_crust_mantle = 1.818757143E-27
 Max of strain, epsilondev_crust_mantle  = 7.806201519E-11
 Elapsed time in seconds =  0.66967391967773437
 Elapsed time in hh:mm:ss =      0 h 00 m 00 s
 Mean elapsed time per time step in seconds =  0.13393478393554689
 Time steps done =  5  out of  1300
 Time steps remaining =  1295
 Estimated remaining time in seconds =  173.44554519653317
 Estimated remaining time in hh:mm:ss =      0 h 02 m 53 s
 Estimated total run time in seconds =  174.11521911621091
 Estimated total run time in hh:mm:ss =      0 h 02 m 54 s
 We have done  0.384615391 % of that
 The run will finish approximately on (in local time): Wed Mar 11, 2015 10:25
 ************************************************************
 **** BEWARE: the above time estimates are not reliable
 **** because fewer than 100 iterations have been performed
 ************************************************************
 
 Time step #  200
 Time:  0.34632495  minutes
 Max norm displacement vector U in solid in all slices for forward prop. (m) =  1.110385451E-2
 Max non-dimensional potential Ufluid in fluid in all slices for forward prop. =  1.026728106E-24
 Max of strain, eps_trace_over_3_crust_mantle = 3.294858374E-16
 Max of strain, epsilondev_crust_mantle  = 1.181830498E-6
 Elapsed time in seconds =  33.126194000244141
 Elapsed time in hh:mm:ss =      0 h 00 m 33 s
 Mean elapsed time per time step in seconds =  0.16563097000122071
 Time steps done =  200  out of  1300
 Time steps remaining =  1100
 Estimated remaining time in seconds =  182.19406700134277
 Estimated remaining time in hh:mm:ss =      0 h 03 m 02 s
 Estimated total run time in seconds =  215.32026100158691
 Estimated total run time in hh:mm:ss =      0 h 03 m 35 s
 We have done  15.3846149 % of that
 The run will finish approximately on (in local time): Wed Mar 11, 2015 10:25
 
 Time step #  400
 Time:  0.769767106  minutes
 Max norm displacement vector U in solid in all slices for forward prop. (m) =  1.159808319E-2
 Max non-dimensional potential Ufluid in fluid in all slices for forward prop. =  1.054991908E-24
 Max of strain, eps_trace_over_3_crust_mantle = 1.28491575E-12
 Max of strain, epsilondev_crust_mantle  = 1.259078886E-6
 Elapsed time in seconds =  66.324035882949829
 Elapsed time in hh:mm:ss =      0 h 01 m 06 s
 Mean elapsed time per time step in seconds =  0.16581008970737457
 Time steps done =  400  out of  1300
 Time steps remaining =  900
 Estimated remaining time in seconds =  149.22908073663712
 Estimated remaining time in hh:mm:ss =      0 h 02 m 29 s
 Estimated total run time in seconds =  215.55311661958694
 Estimated total run time in hh:mm:ss =      0 h 03 m 35 s
 We have done  30.7692299 % of that
 The run will finish approximately on (in local time): Wed Mar 11, 2015 10:25
 
 Time step #  600
 Time:  1.19320929  minutes
 Max norm displacement vector U in solid in all slices for forward prop. (m) =  1.146584097E-2
 Max non-dimensional potential Ufluid in fluid in all slices for forward prop. =  1.082735455E-24
 Max of strain, eps_trace_over_3_crust_mantle = 3.155834205E-10
 Max of strain, epsilondev_crust_mantle  = 1.258222937E-6
 Elapsed time in seconds =  99.625735998153687
 Elapsed time in hh:mm:ss =      0 h 01 m 39 s
 Mean elapsed time per time step in seconds =  0.16604289333025615
 Time steps done =  600  out of  1300
 Time steps remaining =  700
 Estimated remaining time in seconds =  116.23002533117931
 Estimated remaining time in hh:mm:ss =      0 h 01 m 56 s
 Estimated total run time in seconds =  215.85576132933301
 Estimated total run time in hh:mm:ss =      0 h 03 m 35 s
 We have done  46.1538467 % of that
 The run will finish approximately on (in local time): Wed Mar 11, 2015 10:26
 
 Time step #  800
 Time:  1.61665142  minutes
 Max norm displacement vector U in solid in all slices for forward prop. (m) =  1.142042689E-2
 Max non-dimensional potential Ufluid in fluid in all slices for forward prop. =  1.110191858E-24
 Max of strain, eps_trace_over_3_crust_mantle = 2.834704693E-10
 Max of strain, epsilondev_crust_mantle  = 1.259855594E-6
 Elapsed time in seconds =  132.87437987327576
 Elapsed time in hh:mm:ss =      0 h 02 m 12 s
 Mean elapsed time per time step in seconds =  0.16609297484159469
 Time steps done =  800  out of  1300
 Time steps remaining =  500
 Estimated remaining time in seconds =  83.046487420797348
 Estimated remaining time in hh:mm:ss =      0 h 01 m 23 s
 Estimated total run time in seconds =  215.9208672940731
 Estimated total run time in hh:mm:ss =      0 h 03 m 35 s
 We have done  61.5384598 % of that
 The run will finish approximately on (in local time): Wed Mar 11, 2015 10:25
 
 Time step #  1000
 Time:  2.04009342  minutes
 Max norm displacement vector U in solid in all slices for forward prop. (m) =  1.142291259E-2
 Max non-dimensional potential Ufluid in fluid in all slices for forward prop. =  1.134872456E-24
 Max of strain, eps_trace_over_3_crust_mantle = 5.875273601E-10
 Max of strain, epsilondev_crust_mantle  = 1.257483518E-6
 Elapsed time in seconds =  166.16272377967834
 Elapsed time in hh:mm:ss =      0 h 02 m 46 s
 Mean elapsed time per time step in seconds =  0.16616272377967836
 Time steps done =  1000  out of  1300
 Time steps remaining =  300
 Estimated remaining time in seconds =  49.848817133903502
 Estimated remaining time in hh:mm:ss =      0 h 00 m 49 s
 Estimated total run time in seconds =  216.01154091358185
 Estimated total run time in hh:mm:ss =      0 h 03 m 36 s
 We have done  76.9230804 % of that
 The run will finish approximately on (in local time): Wed Mar 11, 2015 10:26
 
 Time step #  1200
 Time:  2.46353579  minutes
 Max norm displacement vector U in solid in all slices for forward prop. (m) =  1.141429134E-2
 Max non-dimensional potential Ufluid in fluid in all slices for forward prop. =  1.16843474E-24
 Max of strain, eps_trace_over_3_crust_mantle = 1.014763495E-9
 Max of strain, epsilondev_crust_mantle  = 1.253686833E-6
 Elapsed time in seconds =  199.40769290924072
 Elapsed time in hh:mm:ss =      0 h 03 m 19 s
 Mean elapsed time per time step in seconds =  0.16617307742436727
 Time steps done =  1200  out of  1300
 Time steps remaining =  100
 Estimated remaining time in seconds =  16.617307742436726
 Estimated remaining time in hh:mm:ss =      0 h 00 m 16 s
 Estimated total run time in seconds =  216.02500065167746
 Estimated total run time in hh:mm:ss =      0 h 03 m 36 s
 We have done  92.3076935 % of that
 The run will finish approximately on (in local time): Wed Mar 11, 2015 10:25
 
 Time step #  1300
 Time:  2.67525673  minutes
 Max norm displacement vector U in solid in all slices for forward prop. (m) =  1.142398454E-2
 Max non-dimensional potential Ufluid in fluid in all slices for forward prop. =  1.180095682E-24
 Max of strain, eps_trace_over_3_crust_mantle = 6.284891496E-10
 Max of strain, epsilondev_crust_mantle  = 1.257557415E-6
 Elapsed time in seconds =  216.37004399299622
 Elapsed time in hh:mm:ss =      0 h 03 m 36 s
 Mean elapsed time per time step in seconds =  0.16643849537922786
 Time steps done =  1300  out of  1300
 Time steps remaining =  0
 Estimated remaining time in seconds =  0.
 Estimated remaining time in hh:mm:ss =      0 h 00 m 00 s
 Estimated total run time in seconds =  216.37004399299622
 Estimated total run time in hh:mm:ss =      0 h 03 m 36 s
 We have done  100. % of that
 
 
 Writing the seismograms in parallel took  0.2606809139251709  seconds
 
 
  Total number of time steps written:  1300
 
 Time-Loop Complete. Timing info:
 Total elapsed time in seconds =  216.80352282524109
 Total elapsed time in hh:mm:ss =      0 h 03 m 36 s
 
 End of the simulation
 
