
 ****************************
 *** Specfem3D MPI Mesher ***
 ****************************

 Version: 7.0.3


 Planet: Earth


 There are            4  MPI processes
 Processes are numbered from 0 to            3

 There are           64  elements along xi in each chunk
 There are           64  elements along eta in each chunk

 There are            2  slices along xi in each chunk
 There are            2  slices along eta in each chunk
 There is a total of            4  slices in each chunk
 There are            1  chunks in the global mesh
 There is a total of            4  slices in the global mesh

 NGLLX =            5
 NGLLY =            5
 NGLLZ =            5

 Shape functions defined by NGNOD =           27  control nodes
 Surface shape functions defined by NGNOD2D =            9  control nodes

 model: 1D_transversely_isotropic_prem
   incorporating the oceans using equivalent load
   incorporating ellipticity
   incorporating surface topography
   incorporating self-gravitation (Cowling approximation)
   incorporating rotation
   incorporating attenuation using            3  standard linear solids

   no 3-D lateral variations in the mantle
   no heterogeneities in the mantle
   no crustal variations
   using unmodified 1D crustal model with two layers
   incorporating transverse isotropy
   no inner-core anisotropy
   no general mantle anisotropy

 Reference radius of the globe used is    6371.0000000000000       km

 Central cube is at a radius of    1042.0000000000000       km
 creating global slice addressing


 incorporating topography
   topo file            : DATA/topo_bathy/topo_bathy_etopo4_smoothed_window_7.bin
   resolution in minutes:    4.00000000

   topography/bathymetry: min/max =        -7747        5507

   Elapsed time for reading in seconds =    3.0681000000000000E-002


   VTK topo output: topo resolution in minutes =    4.00000000
                    samples per degree         =    15.0000000
                    resolution distance        =    7.41299534     (km)
                    full globe NLAT =         2700
                               NLON =         5400
                               total number of points NLAT x NLON =     14580000
                    limiting output to samples per degree         =            2

   elevations written to file: ./DATABASES_MPI/mesh_topo_bathy.vtk
   min/max =   -7.62056255     /   5.49393749     (km)


 additional mesh optimizations

 moho:
   no element stretching for 3-D moho surface

 internal topography 410/660:
   no element stretching for 3-D internal surfaces


 Radial Meshing parameters:
   NCHUNKS                =            1

   CENTER LAT/LON:             40.0000000     /   25.0000000
   GAMMA_ROTATION_AZIMUTH:     0.00000000

   CHUNK WIDTH XI/ETA:         20.0000000     /   20.0000000
   NEX XI/ETA:                        64 /          64

   NER_CRUST:                          2
   NER_80_MOHO:                        1
   NER_220_80:                         2
   NER_400_220:                        3
   NER_600_400:                        3
   NER_670_600:                        1
   NER_771_670:                        2
   NER_TOPDDOUBLEPRIME_771:           28
   NER_CMB_TOPDDOUBLEPRIME:            2
   NER_OUTER_CORE:                    28
   NER_TOP_CENTRAL_CUBE_ICB:           3
   SUPPRESS_CRUSTAL_MESH:    F

   R_CENTRAL_CUBE =    1042.00000      km

 Mesh resolution:
   DT =   0.12500000000000000
   Minimum period =    15.4437399      (s)

   MIN_ATTENUATION_PERIOD =    15.4437399
   MAX_ATTENUATION_PERIOD =    868.465332


 *******************************************
 creating mesh in region            1
 this region is the crust and mantle
 *******************************************


 first pass

   ...allocating arrays

   ...setting up layers

   ...creating mesh elements
   creating layer            1 out of           11
   setting tiso flags in mantle model
      9.1%    current clock (NOT elapsed) time is: 22h 42min 43sec
   creating layer            2 out of           11
     18.2%    current clock (NOT elapsed) time is: 22h 42min 43sec
   creating layer            3 out of           11
     27.3%    current clock (NOT elapsed) time is: 22h 42min 43sec
   creating layer            4 out of           11
     36.4%    current clock (NOT elapsed) time is: 22h 42min 43sec
   creating layer            5 out of           11
     45.5%    current clock (NOT elapsed) time is: 22h 42min 43sec
   creating layer            6 out of           11
     54.5%    current clock (NOT elapsed) time is: 22h 42min 43sec
   creating layer            7 out of           11
     63.6%    current clock (NOT elapsed) time is: 22h 42min 43sec
   creating layer            8 out of           11
     72.7%    current clock (NOT elapsed) time is: 22h 42min 43sec
   creating layer            9 out of           11
     81.8%    current clock (NOT elapsed) time is: 22h 42min 43sec
   creating layer           10 out of           11
     90.9%    current clock (NOT elapsed) time is: 22h 42min 43sec
   creating layer           11 out of           11
    100.0%    current clock (NOT elapsed) time is: 22h 42min 43sec


   ...creating global addressing

   ...creating MPI buffers

 second pass

   ...allocating arrays

   ...setting up layers

   ...creating mesh elements
   creating layer            1 out of           11
      9.1%    current clock (NOT elapsed) time is: 22h 42min 44sec
   creating layer            2 out of           11
     18.2%    current clock (NOT elapsed) time is: 22h 42min 44sec
   creating layer            3 out of           11
     27.3%    current clock (NOT elapsed) time is: 22h 42min 44sec
   creating layer            4 out of           11
     36.4%    current clock (NOT elapsed) time is: 22h 42min 44sec
   creating layer            5 out of           11
     45.5%    current clock (NOT elapsed) time is: 22h 42min 45sec
   creating layer            6 out of           11
     54.5%    current clock (NOT elapsed) time is: 22h 42min 45sec
   creating layer            7 out of           11
     63.6%    current clock (NOT elapsed) time is: 22h 42min 45sec
   creating layer            8 out of           11
     72.7%    current clock (NOT elapsed) time is: 22h 42min 45sec
   creating layer            9 out of           11
     81.8%    current clock (NOT elapsed) time is: 22h 42min 45sec
   creating layer           10 out of           11
     90.9%    current clock (NOT elapsed) time is: 22h 42min 45sec
   creating layer           11 out of           11
    100.0%    current clock (NOT elapsed) time is: 22h 42min 45sec


   ...fills global mesh points

   ...checking mesh resolution and time step

 ----------------------------------
   Verification of mesh parameters:
 ----------------------------------
   Region is crust/mantle

   Min Vs =    3.19999981      (km/s)
   Max Vp =    13.7166214      (km/s)

   Max element edge size =    105.576622      (km)
   Min element edge size =    9.22875595      (km)
   Max/min ratio =    11.4399624

   Max Jacobian eigenvalue ratio =   0.992908418
   Min Jacobian eigenvalue ratio =   0.172205880

   Minimum period resolved =    19.2339439      (s)
   Minimum period resolved (empirical) =    15.4437399      (s)
   Maximum suggested time step =   0.125000000      (s)

   for DT :   0.125000000      (s)
   Max stability for wave velocities =   0.533397377
 ----------------------------------

   saving vtk mesh files for resolution res_minimum_period...

   ...precomputing Jacobian

   ...creating chunk buffers

 ----- creating chunk buffers -----

 There are            2  slices along xi in each chunk
 There are            2  slices along eta in each chunk
 There is a total of            4  slices in each chunk
 There are            1  chunks
 There is a total of            4  slices in all the chunks

 There is a total of            2  messages to assemble faces between chunks


 only one chunk, no need to create chunk buffers


   ...preparing MPI interfaces

 crust/mantle region:
   #max of points in MPI buffers along xi npoin2D_xi =        10497
   #max of array elements transferred npoin2D_xi*NDIM =        31491

   #max of points in MPI buffers along eta npoin2D_eta =        10497
   #max of array elements transferred npoin2D_eta*NDIM =        31491

 crust mantle MPI:
   maximum interfaces:           3
   MPI addressing maximum interfaces:           3
   MPI addressing : all interfaces okay

   total MPI interface points :        84684
   unique MPI interface points:        83268
   maximum valence            :            3
   total unique MPI interface points:       83268


   ...element inner/outer separation

 for overlapping of communications with calculations:

 percentage of edge elements in crust/mantle    11.5767050     %
 percentage of volume elements in crust/mantle    88.4232941     %


   ...element mesh coloring
   mesh coloring:  F

   ...creating mass matrix
     updates mass matrix with Stacey boundary corrections
     updates mass matrix with ocean load

   ...saving binary files

   ...saving mesh files

 calculated region volume:    3.36238183E-02
                 top area:   0.120566122
              bottom area:    3.59782837E-02

 *******************************************
 creating mesh in region            2
 this region is the outer core
 *******************************************


 first pass

   ...allocating arrays

   ...setting up layers

   ...creating mesh elements
   creating layer            1 out of            2
     50.0%    current clock (NOT elapsed) time is: 22h 42min 47sec
   creating layer            2 out of            2
    100.0%    current clock (NOT elapsed) time is: 22h 42min 47sec


   ...creating global addressing

   ...creating MPI buffers

 second pass

   ...allocating arrays

   ...setting up layers

   ...creating mesh elements
   creating layer            1 out of            2
     50.0%    current clock (NOT elapsed) time is: 22h 42min 47sec
   creating layer            2 out of            2
    100.0%    current clock (NOT elapsed) time is: 22h 42min 47sec


   ...fills global mesh points

   ...checking mesh resolution and time step

 ----------------------------------
   Verification of mesh parameters:
 ----------------------------------
   Region is outer core

   Min Vp =    8.06479359      (km/s)
   Max Vp =    10.3560038      (km/s)

   Max element edge size =    121.046394      (km)
   Min element edge size =    40.3127060      (km)
   Max/min ratio =    3.00268602

   Max Jacobian eigenvalue ratio =   0.997228861
   Min Jacobian eigenvalue ratio =   0.221452862

   Minimum period resolved =    11.4897327      (s)
   Minimum period resolved (empirical) =    15.4437399      (s)
   Maximum suggested time step =   0.400000006      (s)

   for DT :   0.125000000      (s)
   Max stability for wave velocities =   0.171163410
 ----------------------------------

   saving vtk mesh files for resolution res_minimum_period...

   ...precomputing Jacobian

   ...creating chunk buffers

 ----- creating chunk buffers -----

 There are            2  slices along xi in each chunk
 There are            2  slices along eta in each chunk
 There is a total of            4  slices in each chunk
 There are            1  chunks
 There is a total of            4  slices in all the chunks

 There is a total of            2  messages to assemble faces between chunks


 only one chunk, no need to create chunk buffers


   ...preparing MPI interfaces

 outer core region:
   #max of points in MPI buffers along xi npoin2D_xi =         2825
   #max of array elements transferred npoin2D_xi*NDIM =         8475

   #max of points in MPI buffers along eta npoin2D_eta =         2825
   #max of array elements transferred npoin2D_eta*NDIM =         8475

 outer core MPI:
   maximum interfaces:           3
   MPI addressing maximum interfaces:           3
   MPI addressing : all interfaces okay

   total MPI interface points :        23052
   unique MPI interface points:        22148
   maximum valence            :            3
   total assembled MPI interface points:       22148


   ...element inner/outer separation
 percentage of edge elements in outer core    28.3928566     %
 percentage of volume elements in outer core    71.6071472     %


   ...element mesh coloring
   mesh coloring:  F

   ...creating mass matrix
     updates mass matrix with Stacey boundary corrections

   ...saving binary files

   ...saving mesh files

 calculated region volume:    6.26654783E-03
                 top area:    3.59782837E-02
              bottom area:    4.42916248E-03

 *******************************************
 creating mesh in region            3
 this region is the inner core
 *******************************************


 first pass

   ...allocating arrays

   ...setting up layers

   ...creating mesh elements
   creating layer            1 out of            1
    100.0%    current clock (NOT elapsed) time is: 22h 42min 47sec


   ...creating global addressing

   ...creating MPI buffers

 second pass

   ...allocating arrays

   ...setting up layers

   ...creating mesh elements
   creating layer            1 out of            1
    100.0%    current clock (NOT elapsed) time is: 22h 42min 47sec


   ...fills global mesh points

   ...checking mesh resolution and time step

 ----------------------------------
   Verification of mesh parameters:
 ----------------------------------
   Region is inner core

   Min Vs =    3.50444508      (km/s)
   Max Vp =    11.0919638      (km/s)

   Max element edge size =    59.6797981      (km)
   Min element edge size =    44.7452660      (km)
   Max/min ratio =    1.33376789

   Max Jacobian eigenvalue ratio =   0.893020630
   Min Jacobian eigenvalue ratio =   0.739795744

   Minimum period resolved =    18.0533924      (s)
   Minimum period resolved (empirical) =    15.4437399      (s)
   Maximum suggested time step =   0.379999995      (s)

   for DT :   0.125000000      (s)
   Max stability for wave velocities =   0.179451272
 ----------------------------------

   saving vtk mesh files for resolution res_minimum_period...

   ...precomputing Jacobian

   ...creating chunk buffers

 ----- creating chunk buffers -----

 There are            2  slices along xi in each chunk
 There are            2  slices along eta in each chunk
 There is a total of            4  slices in each chunk
 There are            1  chunks
 There is a total of            4  slices in all the chunks

 There is a total of            2  messages to assemble faces between chunks


 only one chunk, no need to create chunk buffers


   ...preparing MPI interfaces

 inner core region:
   #max of points in MPI buffers along xi npoin2D_xi =          221
   #max of array elements transferred npoin2D_xi*NDIM =          663

   #max of points in MPI buffers along eta npoin2D_eta =          221
   #max of array elements transferred npoin2D_eta*NDIM =          663

 inner core MPI:
   maximum interfaces:           3
   MPI addressing maximum interfaces:           3
   MPI addressing : all interfaces okay

   total MPI interface points :         1820
   unique MPI interface points:         1716
   maximum valence            :            3
   total assembled MPI interface points:        1716


   ...element inner/outer separation
 percentage of edge elements in inner core    43.7500000     %
 percentage of volume elements in inner core    56.2500000     %


   ...element mesh coloring
   mesh coloring:  F

   ...creating mass matrix
     updates mass matrix with Stacey boundary corrections

   ...saving binary files

   ...saving mesh files

 calculated region volume:    1.07069805E-04
                 top area:    4.42916248E-03
              bottom area:    3.22571420E-03

 calculated volume:    3.9997434002590870E-002

 Repartition of elements in regions:
 ----------------------------------

 total number of elements in each slice:        12432

  - crust and mantle:    90.6048889      %
  - outer core:    9.00900936      %
  - inner core:   0.386100382      %

 for some mesh statistics, see comments in file OUTPUT_FILES/values_from_mesher.h

 Load balancing = 100 % by definition


 the time step of the solver will be DT =   0.125000000

 using single precision for the calculations

 smallest and largest possible floating-point numbers are:    1.17549435E-38   3.40282347E+38


 Elapsed time for mesh generation and buffer creation in seconds =    5.09691906
 Elapsed time for mesh generation and buffer creation in hh:mm:ss =    0 h 00 m 05 s

 End of mesh generation

