
 ******************************
 **** Specfem3D MPI Solver ****
 ******************************

 Version: 7.0.3


 Planet: Earth


 There are            6  MPI processes
 Processes are numbered from 0 to            5

 There are           32  elements along xi in each chunk
 There are           32  elements along eta in each chunk

 There are            1  slices along xi in each chunk
 There are            1  slices along eta in each chunk
 There is a total of            1  slices in each chunk
 There are            6  chunks
 There is a total of            6  slices in all the chunks

 NDIM =            3

 NGLLX =            5
 NGLLY =            5
 NGLLZ =            5

 using single precision for the calculations

 smallest and largest possible floating-point numbers are:    1.17549435E-38   3.40282347E+38

 model: sgloberani_aniso
   no oceans
   no ellipticity
   no surface topography
   no self-gravitation
   no rotation
   no attenuation

   incorporating 3-D lateral variations in the mantle
   no heterogeneities in the mantle
   incorporating crustal variations
   using one layer only in crust
   incorporating transverse isotropy
   no inner-core anisotropy
   no general mantle anisotropy


 creating global slice addressing

 Spatial distribution of the slices
                        0

     2       1       4

                        5

                        3

 mesh databases:
   reading in crust/mantle databases...
   reading in outer core databases...
   reading in inner core databases...
   reading in coupling surface databases...
   reading in MPI databases...
   for overlapping of communications with calculations:

   percentage of edge elements in crust/mantle    20.6018524     %
   percentage of volume elements in crust/mantle    79.3981476     %

   percentage of edge elements in outer core    51.1627922     %
   percentage of volume elements in outer core    48.8372078     %

   percentage of edge elements in inner core    54.1666679     %
   percentage of volume elements in inner core    45.8333321     %


 Elapsed time for reading mesh in seconds =   0.310559005

 adjacency:
   total number of elements in this slice =         8640

   using kd-tree search radius =    1876.4143871269287      (km)

   maximum search elements                                      =         1208
   maximum of actual search elements (after distance criterion) =         1207

   estimated typical element size at surface =    312.73573118782144      (km)
   maximum distance between neighbor centers =    1418.9232330900620      (km)

   maximum neighbors found per element =           37 (should be 37 for globe meshes)
   total number of neighbors           =       205900

   Elapsed time for detection of neighbors in seconds =    1.7515850000000002

 kd-tree:
   total data points:       233280
   theoretical   number of nodes:       466552
                tree memory size:    14.2380371     MB
   actual        number of nodes:       466559
                tree memory size:    14.2382507     MB
   maximum depth   :           24
   creation timing :   0.166619062     (s)


 sources:         239

 ********************
  locating sources
 ********************


 source #            1

   source located in slice            2
                  in element         8635

   using moment tensor source:
     xi coordinate of source in that element:   0.82269416315105115
     eta coordinate of source in that element:  -0.24031489660274874
     gamma coordinate of source in that element:    5.9925111585580539E-002

   source time function:
     using (quasi) Heaviside source time function

     half duration:    12.600000000000000       seconds
     time shift:    0.0000000000000000       seconds

   magnitude of the source:
        scalar moment M0 =    5.6942182347535656E+027  dyne-cm
     moment magnitude Mw =    7.8036227385058474


   original (requested) position of the source:

         latitude:    38.321500000000000
        longitude:    142.36920000000001
            depth:    24.399999999999999       km

   position of the source that will be used:

         latitude:    38.321500000000022
        longitude:    142.36920000000001
            depth:    24.399999999999668       km

   Error in location of the source:    0.00000000      km

 source #            2

   source located in slice            2
                  in element         8635

   using moment tensor source:
     xi coordinate of source in that element:   0.91448655106056354
     eta coordinate of source in that element:   -8.8068746327884126E-002
     gamma coordinate of source in that element:  -0.45794668249495046

   source time function:
     using (quasi) Heaviside source time function

     half duration:    13.000000000000000       seconds
     time shift:    9.0000000000000000       seconds

   magnitude of the source:
        scalar moment M0 =    4.8371335514951416E+027  dyne-cm
     moment magnitude Mw =    7.7563920521776097


   original (requested) position of the source:

         latitude:    38.366500000000002
        longitude:    142.15510000000000
            depth:    29.579999999999998       km

   position of the source that will be used:

         latitude:    38.366500000000009
        longitude:    142.15510000000000
            depth:    29.580000000000211       km

   Error in location of the source:    7.07323089E-13  km

 source #            3

   source located in slice            2
                  in element         8635

   using moment tensor source:
     xi coordinate of source in that element:   0.56474334387679392
     eta coordinate of source in that element:  -0.32941668697549287
     gamma coordinate of source in that element:   0.57795076934294487

   source time function:
     using (quasi) Heaviside source time function

     half duration:    14.400000000000000       seconds
     time shift:    9.8000000000000007       seconds

   magnitude of the source:
        scalar moment M0 =    4.1156652755052859E+027  dyne-cm
     moment magnitude Mw =    7.7096266977511867


   original (requested) position of the source:

         latitude:    38.015799999999999
        longitude:    142.49449999999999
            depth:    19.219999999999999       km

   position of the source that will be used:

         latitude:    38.015800000000006
        longitude:    142.49449999999999
            depth:    19.219999999999835       km

   Error in location of the source:    3.53661544E-13  km

 source #            4

   source located in slice            0
                  in element         8511

   using moment tensor source:
     xi coordinate of source in that element:  -0.29284845615868565
     eta coordinate of source in that element:    1.0113474522060228
     gamma coordinate of source in that element:    5.9264346848557477E-002

   source time function:
     using (quasi) Heaviside source time function

     half duration:    15.199999999999999       seconds
     time shift:    11.600000000000000       seconds

   magnitude of the source:
        scalar moment M0 =    5.8828534186226319E+027  dyne-cm
     moment magnitude Mw =    7.8130586848871779


   original (requested) position of the source:

         latitude:    38.582299999999996
        longitude:    142.45849999999999
            depth:    24.399999999999999       km

   position of the source that will be used:

         latitude:    38.582300000000018
        longitude:    142.45849999999999
            depth:    24.400000000001086       km

   Error in location of the source:    1.62068080E-12  km

 source #            5

   source located in slice            0
                  in element         8511

   using moment tensor source:
     xi coordinate of source in that element:  -0.16612106328570342
     eta coordinate of source in that element:   0.82780962413131143
     gamma coordinate of source in that element:  -0.97482927022549981

   source time function:
     using (quasi) Heaviside source time function

     half duration:    12.600000000000000       seconds
     time shift:    17.600000000000001       seconds

   magnitude of the source:
        scalar moment M0 =    5.8764563999063244E+027  dyne-cm
     moment magnitude Mw =    7.8127436788484417


   original (requested) position of the source:

         latitude:    38.672300000000000
        longitude:    142.03020000000001
            depth:    34.750000000000000       km

   position of the source that will be used:

         latitude:    38.672300000000014
        longitude:    142.03020000000004
            depth:    34.749999999998401       km

   Error in location of the source:    2.03163094E-12  km

 source #            6

   source located in slice            2
                  in element         8635

   using moment tensor source:
     xi coordinate of source in that element:   0.73137272551240406
     eta coordinate of source in that element:  -0.39249080602861203
     gamma coordinate of source in that element:   0.57777937195434914

   source time function:
     using (quasi) Heaviside source time function

     half duration:    13.000000000000000       seconds
     time shift:    17.600000000000001       seconds

   magnitude of the source:
        scalar moment M0 =    4.7064455335210247E+027  dyne-cm
     moment magnitude Mw =    7.7484620247168152


   original (requested) position of the source:

         latitude:    38.276499999999999
        longitude:    142.58320000000001
            depth:    19.219999999999999       km

   position of the source that will be used:

         latitude:    38.276499999999999
        longitude:    142.58320000000001
            depth:    19.219999999997007       km

   Error in location of the source:    3.10336739E-12  km

 source #            7

   source located in slice            0
                  in element         1784

   using moment tensor source:
     xi coordinate of source in that element:   0.11966256305132816
     eta coordinate of source in that element:   0.90067835197474411
     gamma coordinate of source in that element:   0.82178114971754446

   source time function:
     using (quasi) Heaviside source time function

     half duration:    12.000000000000000       seconds
     time shift:    20.000000000000000       seconds

   magnitude of the source:
        scalar moment M0 =    4.5662960794280519E+027  dyne-cm
     moment magnitude Mw =    7.7397093785310425


   original (requested) position of the source:

         latitude:    38.456499999999998
        longitude:    141.72720000000001
            depth:    39.930000000000000       km

   position of the source that will be used:

         latitude:    38.456500000000020
        longitude:    141.72720000000001
            depth:    39.929999999997527       km

   Error in location of the source:    2.64656070E-12  km

 source #            8

   source located in slice            0
                  in element         8511

   using moment tensor source:
     xi coordinate of source in that element:    5.7649626793704209E-002
     eta coordinate of source in that element:   0.99327714818231505
     gamma coordinate of source in that element:  -0.97485276298030343

   source time function:
     using (quasi) Heaviside source time function

     half duration:    13.400000000000000       seconds
     time shift:    22.000000000000000       seconds

   magnitude of the source:
        scalar moment M0 =    4.8139990325092512E+027  dyne-cm
     moment magnitude Mw =    7.7550039991046198


   original (requested) position of the source:

         latitude:    38.411499999999997
        longitude:    141.94100000000000
            depth:    34.750000000000000       km

   position of the source that will be used:

         latitude:    38.411500000000025
        longitude:    141.94100000000000
            depth:    34.750000000001229       km

   Error in location of the source:    1.00030596E-12  km

 source #            9

   source located in slice            0
                  in element         1784

   using moment tensor source:
     xi coordinate of source in that element:   0.34401803521021823
     eta coordinate of source in that element:    1.0662645087686247
     gamma coordinate of source in that element:   0.82895806759739910

   source time function:
     using (quasi) Heaviside source time function

     half duration:    13.600000000000000       seconds
     time shift:    22.600000000000001       seconds

   magnitude of the source:
        scalar moment M0 =    3.8747070876390120E+027  dyne-cm
     moment magnitude Mw =    7.6921592514380741


   original (requested) position of the source:

         latitude:    38.195700000000002
        longitude:    141.63820000000001
            depth:    39.930000000000000       km

   position of the source that will be used:

         latitude:    38.195700000000009
        longitude:    141.63820000000004
            depth:    39.929999999999652       km

   Error in location of the source:    1.06098463E-12  km

 source #           10

   source located in slice            0
                  in element         1784

   using moment tensor source:
     xi coordinate of source in that element:  -0.10386884860318271
     eta coordinate of source in that element:   0.73544417353577352
     gamma coordinate of source in that element:   0.81384206958304095

   source time function:
     using (quasi) Heaviside source time function

     half duration:    15.000000000000000       seconds
     time shift:    26.199999999999999       seconds

   magnitude of the source:
        scalar moment M0 =    4.4159858112317351E+027  dyne-cm
     moment magnitude Mw =    7.7300184462099786


   original (requested) position of the source:

         latitude:    38.717300000000002
        longitude:    141.81630000000001
            depth:    39.930000000000000       km

   position of the source that will be used:

         latitude:    38.717299999999994
        longitude:    141.81630000000001
            depth:    39.929999999999652       km

   Error in location of the source:    1.00030596E-12  km

 source #           11

   source located in slice            0
                  in element         8511

   using moment tensor source:
     xi coordinate of source in that element:  -0.61080961047527871
     eta coordinate of source in that element:   0.49780318948417207
     gamma coordinate of source in that element:  -0.97508046862397912

   source time function:
     using (quasi) Heaviside source time function

     half duration:    8.0000000000000000       seconds
     time shift:    26.800000000000001       seconds

   magnitude of the source:
        scalar moment M0 =    3.7384981389590127E+027  dyne-cm
     moment magnitude Mw =    7.6817981125260211


   original (requested) position of the source:

         latitude:    39.193800000000003
        longitude:    142.20830000000001
            depth:    34.750000000000000       km

   position of the source that will be used:

         latitude:    39.193799999999996
        longitude:    142.20830000000001
            depth:    34.749999999998401       km

   Error in location of the source:    1.62068080E-12  km

 source #           12

   source located in slice            2
                  in element         8635

   using moment tensor source:
     xi coordinate of source in that element:   0.84081684757502917
     eta coordinate of source in that element:   0.12732198463117292
     gamma coordinate of source in that element:  -0.97423898414660648

   source time function:
     using (quasi) Heaviside source time function

     half duration:    15.000000000000000       seconds
     time shift:    29.199999999999999       seconds

   magnitude of the source:
        scalar moment M0 =    4.2747608745987181E+027  dyne-cm
     moment magnitude Mw =    7.7206078838600476


   original (requested) position of the source:

         latitude:    38.150700000000001
        longitude:    141.85220000000001
            depth:    34.750000000000000       km

   position of the source that will be used:

         latitude:    38.150700000000022
        longitude:    141.85220000000001
            depth:    34.750000000000526       km

   Error in location of the source:    0.00000000      km

 source #           13

   source located in slice            2
                  in element         8636

   using moment tensor source:
     xi coordinate of source in that element:   0.38291351425045589
     eta coordinate of source in that element:  -0.63362907455090489
     gamma coordinate of source in that element:  -0.18319208495409622

   source time function:
     using (quasi) Heaviside source time function

     half duration:    10.400000000000000       seconds
     time shift:    29.399999999999999       seconds

   magnitude of the source:
        scalar moment M0 =    1.3419050935889616E+027  dyne-cm
     moment magnitude Mw =    7.3851478675905220


   original (requested) position of the source:

         latitude:    37.925699999999999
        longitude:    142.92230000000001
            depth:    8.8710000000000004       km

   position of the source that will be used:

         latitude:    37.925700000000006
        longitude:    142.92230000000001
            depth:    8.8710000000003486       km

   Error in location of the source:    0.00000000      km

 source #           14

   source located in slice            2
                  in element         8636

   using moment tensor source:
     xi coordinate of source in that element:   0.21550370159299673
     eta coordinate of source in that element:  -0.57026973742342113
     gamma coordinate of source in that element:  -0.18351100359303116

   source time function:
     using (quasi) Heaviside source time function

     half duration:    14.600000000000000       seconds
     time shift:    29.600000000000001       seconds

   magnitude of the source:
        scalar moment M0 =    1.1938906927353106E+027  dyne-cm
     moment magnitude Mw =    7.3513097110420418


   original (requested) position of the source:

         latitude:    37.664900000000003
        longitude:    142.83320000000001
            depth:    8.8710000000000004       km

   position of the source that will be used:

         latitude:    37.664900000000024
        longitude:    142.83320000000001
            depth:    8.8710000000003486       km

   Error in location of the source:    7.90811264E-13  km

 source #           15

   source located in slice            0
                  in element         1784

   using moment tensor source:
     xi coordinate of source in that element:  -0.54819730241772124
     eta coordinate of source in that element:   0.40596862968715813
     gamma coordinate of source in that element:   0.79558659319990432

   source time function:
     using (quasi) Heaviside source time function

     half duration:    9.5999999999999996       seconds
     time shift:    30.399999999999999       seconds

   magnitude of the source:
        scalar moment M0 =    3.6606587050693476E+027  dyne-cm
     moment magnitude Mw =    7.6757061600693426


   original (requested) position of the source:

         latitude:    39.238799999999998
        longitude:    141.99440000000001
            depth:    39.930000000000000       km

   position of the source that will be used:

         latitude:    39.238800000000012
        longitude:    141.99440000000001
            depth:    39.930000000000355       km

   Error in location of the source:    7.90811264E-13  km

 source #           16

   source located in slice            2
                  in element         8635

   using moment tensor source:
     xi coordinate of source in that element:   0.65629820705033193
     eta coordinate of source in that element:  -0.17709890454987218
     gamma coordinate of source in that element:    6.0254590890071097E-002

   source time function:
     using (quasi) Heaviside source time function

     half duration:    10.000000000000000       seconds
     time shift:    33.600000000000001       seconds

   magnitude of the source:
        scalar moment M0 =    5.3984173435368996E+027  dyne-cm
     moment magnitude Mw =    7.7881776374483280


   original (requested) position of the source:

         latitude:    38.060699999999997
        longitude:    142.28030000000001
            depth:    24.399999999999999       km

   position of the source that will be used:

         latitude:    38.060700000000018
        longitude:    142.28030000000001
            depth:    24.400000000000379       km

   Error in location of the source:    1.06098463E-12  km

 source #           17

   source located in slice            0
                  in element         1784

   using moment tensor source:
     xi coordinate of source in that element:   -4.2032705839984683E-002
     eta coordinate of source in that element:   0.64259461534560203
     gamma coordinate of source in that element:   0.60840897781409176

   source time function:
     using (quasi) Heaviside source time function

     half duration:    10.000000000000000       seconds
     time shift:    34.000000000000000       seconds

   magnitude of the source:
        scalar moment M0 =    3.4900141274785685E+027  dyne-cm
     moment magnitude Mw =    7.6618847899830165


   original (requested) position of the source:

         latitude:    38.762200000000000
        longitude:    141.60200000000000
            depth:    45.109999999999999       km

   position of the source that will be used:

         latitude:    38.762200000000014
        longitude:    141.60200000000000
            depth:    45.110000000000191       km

   Error in location of the source:    7.07323089E-13  km

 source #           18

   source located in slice            2
                  in element         8636

   using moment tensor source:
     xi coordinate of source in that element:   0.47364375885526722
     eta coordinate of source in that element:  -0.48152185462053942
     gamma coordinate of source in that element:  -0.87371024408448428

   source time function:
     using (quasi) Heaviside source time function

     half duration:    11.199999999999999       seconds
     time shift:    37.200000000000003       seconds

   magnitude of the source:
        scalar moment M0 =    2.5801086079465725E+027  dyne-cm
     moment magnitude Mw =    7.5744253251225473


   original (requested) position of the source:

         latitude:    37.970799999999997
        longitude:    142.70840000000001
            depth:    14.050000000000001       km

   position of the source that will be used:

         latitude:    37.970800000000018
        longitude:    142.70839999999998
            depth:    14.050000000002353       km

   Error in location of the source:    2.55028962E-12  km

 source #           19

   source located in slice            0
                  in element         8512

   using moment tensor source:
     xi coordinate of source in that element:  -0.64567308669013657
     eta coordinate of source in that element:    1.0268093007922665
     gamma coordinate of source in that element:  -0.87486149765980503

   source time function:
     using (quasi) Heaviside source time function

     half duration:    13.400000000000000       seconds
     time shift:    38.200000000000003       seconds

   magnitude of the source:
        scalar moment M0 =    3.8982846586671935E+027  dyne-cm
     moment magnitude Mw =    7.6939156991881816


   original (requested) position of the source:

         latitude:    38.753100000000003
        longitude:    142.97550000000001
            depth:    14.050000000000001       km

   position of the source that will be used:

         latitude:    38.753100000000025
        longitude:    142.97550000000001
            depth:    14.049999999998109       km

   Error in location of the source:    2.26453882E-12  km

 source #           20

   source located in slice            0
                  in element         8511

   using moment tensor source:
     xi coordinate of source in that element:  -0.38885133883245865
     eta coordinate of source in that element:   0.66267431948483779
     gamma coordinate of source in that element:  -0.97497213453963660

   source time function:
     using (quasi) Heaviside source time function

     half duration:    11.000000000000000       seconds
     time shift:    39.399999999999999       seconds

   magnitude of the source:
        scalar moment M0 =    3.6079310837376041E+027  dyne-cm
     moment magnitude Mw =    7.6715054888995375


   original (requested) position of the source:

         latitude:    38.933000000000000
        longitude:    142.11920000000001
            depth:    34.750000000000000       km

   position of the source that will be used:

         latitude:    38.933000000000014
        longitude:    142.11920000000001
            depth:    34.750000000001229       km

   Error in location of the source:    1.45818394E-12  km

 source #           21

   source located in slice            0
                  in element         8511

   using moment tensor source:
     xi coordinate of source in that element:  -0.67412925414839142
     eta coordinate of source in that element:   0.58922990374336426
     gamma coordinate of source in that element:  -0.45809611069067901

   source time function:
     using (quasi) Heaviside source time function

     half duration:    18.199999999999999       seconds
     time shift:    39.600000000000001       seconds

   magnitude of the source:
        scalar moment M0 =    4.5100441023342554E+027  dyne-cm
     moment magnitude Mw =    7.7361205258205992


   original (requested) position of the source:

         latitude:    39.148800000000001
        longitude:    142.42230000000001
            depth:    29.579999999999998       km

   position of the source that will be used:

         latitude:    39.148800000000008
        longitude:    142.42230000000001
            depth:    29.579999999999504       km

   Error in location of the source:    3.53661544E-13  km

 source #           22

   source located in slice            2
                  in element         8635

   using moment tensor source:
     xi coordinate of source in that element:   0.39787469624930827
     eta coordinate of source in that element:  -0.26591588156308466
     gamma coordinate of source in that element:   0.57795224431544800

   source time function:
     using (quasi) Heaviside source time function

     half duration:    10.800000000000001       seconds
     time shift:    40.200000000000003       seconds

   magnitude of the source:
        scalar moment M0 =    4.2928239836965126E+027  dyne-cm
     moment magnitude Mw =    7.7218287211376264


   original (requested) position of the source:

         latitude:    37.755000000000003
        longitude:    142.40520000000001
            depth:    19.219999999999999       km

   position of the source that will be used:

         latitude:    37.755000000000010
        longitude:    142.40520000000001
            depth:    19.220000000000542       km

   Error in location of the source:    7.90811264E-13  km

 source #           23

   source located in slice            2
                  in element         8635

   using moment tensor source:
     xi coordinate of source in that element:   0.32265813177183755
     eta coordinate of source in that element:   -5.0452988593018604E-002
     gamma coordinate of source in that element:    6.0337099438096668E-002

   source time function:
     using (quasi) Heaviside source time function

     half duration:    15.800000000000001       seconds
     time shift:    42.399999999999999       seconds

   magnitude of the source:
        scalar moment M0 =    5.2956640357938124E+027  dyne-cm
     moment magnitude Mw =    7.7826136167110924


   original (requested) position of the source:

         latitude:    37.539200000000001
        longitude:    142.10220000000001
            depth:    24.399999999999999       km

   position of the source that will be used:

         latitude:    37.539200000000022
        longitude:    142.10220000000001
            depth:    24.400000000000379       km

   Error in location of the source:    1.22511951E-12  km

 source #           24

   source located in slice            0
                  in element         8511

   using moment tensor source:
     xi coordinate of source in that element:  -0.73816113616664769
     eta coordinate of source in that element:   0.68024962644444875
     gamma coordinate of source in that element:    5.9864827958373161E-002

   source time function:
     using (quasi) Heaviside source time function

     half duration:    10.800000000000001       seconds
     time shift:    42.600000000000001       seconds

   magnitude of the source:
        scalar moment M0 =    4.8059645384667572E+027  dyne-cm
     moment magnitude Mw =    7.7545203746483011


   original (requested) position of the source:

         latitude:    39.103800000000000
        longitude:    142.63640000000001
            depth:    24.399999999999999       km

   position of the source that will be used:

         latitude:    39.103800000000007
        longitude:    142.63640000000001
            depth:    24.400000000000379       km

   Error in location of the source:    1.00030596E-12  km

 source #           25

   source located in slice            0
                  in element         1784

   using moment tensor source:
     xi coordinate of source in that element:   0.40533783192482292
     eta coordinate of source in that element:   0.97284209028539415
     gamma coordinate of source in that element:   0.64102997804836681

   source time function:
     using (quasi) Heaviside source time function

     half duration:    12.000000000000000       seconds
     time shift:    43.399999999999999       seconds

   magnitude of the source:
        scalar moment M0 =    2.9274343997773884E+027  dyne-cm
     moment magnitude Mw =    7.6109914478970317


   original (requested) position of the source:

         latitude:    38.240699999999997
        longitude:    141.42400000000001
            depth:    45.109999999999999       km

   position of the source that will be used:

         latitude:    38.240700000000011
        longitude:    141.42400000000001
            depth:    45.109999999998777       km

   Error in location of the source:    1.62068080E-12  km

 source #           26

   source located in slice            2
                  in element         8635

   using moment tensor source:
     xi coordinate of source in that element:   0.89761429516352154
     eta coordinate of source in that element:  -0.45592052591158344
     gamma coordinate of source in that element:   0.57738780978032711

   source time function:
     using (quasi) Heaviside source time function

     half duration:    13.600000000000000       seconds
     time shift:    43.600000000000001       seconds

   magnitude of the source:
        scalar moment M0 =    4.9249213673925800E+027  dyne-cm
     moment magnitude Mw =    7.7615995338850077


   original (requested) position of the source:

         latitude:    38.537300000000002
        longitude:    142.67240000000001
            depth:    19.219999999999999       km

   position of the source that will be used:

         latitude:    38.537300000000002
        longitude:    142.67240000000001
            depth:    19.219999999998421       km

   Error in location of the source:    1.00030596E-12  km

 source #           27

   source located in slice            2
                  in element         1772

   using moment tensor source:
     xi coordinate of source in that element:   0.60166081573892971
     eta coordinate of source in that element:   0.40621592143460056
     gamma coordinate of source in that element:   0.80733866405476240

   source time function:
     using (quasi) Heaviside source time function

     half duration:    13.800000000000001       seconds
     time shift:    43.600000000000001       seconds

   magnitude of the source:
        scalar moment M0 =    1.4992676112022163E+027  dyne-cm
     moment magnitude Mw =    7.4172527726639395


   original (requested) position of the source:

         latitude:    37.674199999999999
        longitude:    141.46000000000001
            depth:    39.930000000000000       km

   position of the source that will be used:

         latitude:    37.674200000000020
        longitude:    141.46000000000001
            depth:    39.930000000003190       km

   Error in location of the source:    3.10336739E-12  km

 source #           28

   source located in slice            2
                  in element         8635

   using moment tensor source:
     xi coordinate of source in that element:   0.48969756674362003
     eta coordinate of source in that element:  -0.11374050789650529
     gamma coordinate of source in that element:    6.0375285829688721E-002

   source time function:
     using (quasi) Heaviside source time function

     half duration:    13.600000000000000       seconds
     time shift:    44.799999999999997       seconds

   magnitude of the source:
        scalar moment M0 =    5.8506242350709895E+027  dyne-cm
     moment magnitude Mw =    7.8114681372039101


   original (requested) position of the source:

         latitude:    37.799999999999997
        longitude:    142.19120000000001
            depth:    24.399999999999999       km

   position of the source that will be used:

         latitude:    37.800000000000011
        longitude:    142.19120000000001
            depth:    24.399999999998965       km

   Error in location of the source:    1.00030596E-12  km

 source #           29

   source located in slice            2
                  in element         8636

   using moment tensor source:
     xi coordinate of source in that element:   0.80696010955321706
     eta coordinate of source in that element:  -0.60816925917917219
     gamma coordinate of source in that element:  -0.87399154553561320

   source time function:
     using (quasi) Heaviside source time function

     half duration:    9.4000000000000004       seconds
     time shift:    45.000000000000000       seconds

   magnitude of the source:
        scalar moment M0 =    3.5536160252621552E+027  dyne-cm
     moment magnitude Mw =    7.6671136664586506


   original (requested) position of the source:

         latitude:    38.492300000000000
        longitude:    142.88650000000001
            depth:    14.050000000000001       km

   position of the source that will be used:

         latitude:    38.492300000000014
        longitude:    142.88649999999998
            depth:    14.049999999998109       km

   Error in location of the source:    2.03163094E-12  km

 source #           30

   source located in slice            2
                  in element         8636

   using moment tensor source:
     xi coordinate of source in that element:   0.30642903251410203
     eta coordinate of source in that element:  -0.41809178173981604
     gamma coordinate of source in that element:  -0.87386693026211937

   source time function:
     using (quasi) Heaviside source time function

     half duration:    13.400000000000000       seconds
     time shift:    45.000000000000000       seconds

   magnitude of the source:
        scalar moment M0 =    2.5327775099680583E+027  dyne-cm
     moment magnitude Mw =    7.5690646941182784


   original (requested) position of the source:

         latitude:    37.709899999999998
        longitude:    142.61920000000001
            depth:    14.050000000000001       km

   position of the source that will be used:

         latitude:    37.709900000000033
        longitude:    142.61920000000001
            depth:    14.050000000000232       km

   Error in location of the source:    1.00030596E-12  km

 source #           31

   source located in slice            0
                  in element         1784

   using moment tensor source:
     xi coordinate of source in that element:  -0.32648445676576449
     eta coordinate of source in that element:   0.57050002479039963
     gamma coordinate of source in that element:   0.80511793301351420

   source time function:
     using (quasi) Heaviside source time function

     half duration:    16.199999999999999       seconds
     time shift:    45.799999999999997       seconds

   magnitude of the source:
        scalar moment M0 =    3.5437161158873879E+027  dyne-cm
     moment magnitude Mw =    7.6663059490956051


   original (requested) position of the source:

         latitude:    38.978099999999998
        longitude:    141.90530000000001
            depth:    39.930000000000000       km

   position of the source that will be used:

         latitude:    38.978100000000005
        longitude:    141.90530000000001
            depth:    39.929999999999652       km

   Error in location of the source:    0.00000000      km

 source #           32

   source located in slice            2
                  in element         1772

   using moment tensor source:
     xi coordinate of source in that element:   0.76788000838594805
     eta coordinate of source in that element:   0.34278485767162348
     gamma coordinate of source in that element:   0.81575815517607264

   source time function:
     using (quasi) Heaviside source time function

     half duration:    17.199999999999999       seconds
     time shift:    46.399999999999999       seconds

   magnitude of the source:
        scalar moment M0 =    3.0875819179416118E+027  dyne-cm
     moment magnitude Mw =    7.6264123259140923


   original (requested) position of the source:

         latitude:    37.935000000000002
        longitude:    141.54920000000001
            depth:    39.930000000000000       km

   position of the source that will be used:

         latitude:    37.935000000000024
        longitude:    141.54920000000001
            depth:    39.929999999998948       km

   Error in location of the source:    1.45818394E-12  km

 source #           33

   source located in slice            2
                  in element         8636

   using moment tensor source:
     xi coordinate of source in that element:    4.7793245712061193E-002
     eta coordinate of source in that element:  -0.50683951433888552
     gamma coordinate of source in that element:  -0.18388809464416458

   source time function:
     using (quasi) Heaviside source time function

     half duration:    14.199999999999999       seconds
     time shift:    47.000000000000000       seconds

   magnitude of the source:
        scalar moment M0 =    1.5507377631308269E+027  dyne-cm
     moment magnitude Mw =    7.4270255752223129


   original (requested) position of the source:

         latitude:    37.404100000000000
        longitude:    142.74400000000000
            depth:    8.8710000000000004       km

   position of the source that will be used:

         latitude:    37.404100000000014
        longitude:    142.74400000000000
            depth:    8.8710000000010574       km

   Error in location of the source:    1.45818394E-12  km

 source #           34

   source located in slice            2
                  in element         8635

   using moment tensor source:
     xi coordinate of source in that element:   0.41518335130817863
     eta coordinate of source in that element:   0.10172266250699691
     gamma coordinate of source in that element:  -0.45717080967618867

   source time function:
     using (quasi) Heaviside source time function

     half duration:    13.000000000000000       seconds
     time shift:    47.399999999999999       seconds

   magnitude of the source:
        scalar moment M0 =    5.1511450120337321E+027  dyne-cm
     moment magnitude Mw =    7.7746025173719602


   original (requested) position of the source:

         latitude:    37.584200000000003
        longitude:    141.88820000000001
            depth:    29.579999999999998       km

   position of the source that will be used:

         latitude:    37.584200000000017
        longitude:    141.88820000000001
            depth:    29.580000000000918       km

   Error in location of the source:    7.90811264E-13  km

 source #           35

   source located in slice            0
                  in element         8511

   using moment tensor source:
     xi coordinate of source in that element:  -0.95975690828301419
     eta coordinate of source in that element:   0.51516369006596929
     gamma coordinate of source in that element:    6.0420192177543040E-002

   source time function:
     using (quasi) Heaviside source time function

     half duration:    12.000000000000000       seconds
     time shift:    47.600000000000001       seconds

   magnitude of the source:
        scalar moment M0 =    2.9898664114053654E+027  dyne-cm
     moment magnitude Mw =    7.6171011895216161


   original (requested) position of the source:

         latitude:    39.364699999999999
        longitude:    142.72579999999999
            depth:    24.399999999999999       km

   position of the source that will be used:

         latitude:    39.364700000000013
        longitude:    142.72579999999999
            depth:    24.399999999998965       km

   Error in location of the source:    7.90811264E-13  km

 source #           36

   source located in slice            0
                  in element         8511

   using moment tensor source:
     xi coordinate of source in that element:  -0.51606059241552338
     eta coordinate of source in that element:   0.84565120071275390
     gamma coordinate of source in that element:    5.9543611095336194E-002

   source time function:
     using (quasi) Heaviside source time function

     half duration:    15.600000000000000       seconds
     time shift:    48.000000000000000       seconds

   magnitude of the source:
        scalar moment M0 =    5.6038152043942343E+027  dyne-cm
     moment magnitude Mw =    7.7989892034865882


   original (requested) position of the source:

         latitude:    38.843100000000000
        longitude:    142.54759999999999
            depth:    24.399999999999999       km

   position of the source that will be used:

         latitude:    38.843100000000021
        longitude:    142.54759999999999
            depth:    24.399999999999668       km

   Error in location of the source:    7.90811264E-13  km

 source #           37

   source located in slice            2
                  in element         8636

   using moment tensor source:
     xi coordinate of source in that element:  -0.36561506466416177
     eta coordinate of source in that element:  -0.16486954920509231
     gamma coordinate of source in that element:  -0.87490516807907748

   source time function:
     using (quasi) Heaviside source time function

     half duration:    10.000000000000000       seconds
     time shift:    49.399999999999999       seconds

   magnitude of the source:
        scalar moment M0 =    2.2431094322390957E+027  dyne-cm
     moment magnitude Mw =    7.5339003077143296


   original (requested) position of the source:

         latitude:    36.666800000000002
        longitude:    142.26310000000001
            depth:    14.050000000000001       km

   position of the source that will be used:

         latitude:    36.666800000000016
        longitude:    142.26310000000001
            depth:    14.050000000000232       km

   Error in location of the source:    1.22511951E-12  km

 source #           38

   source located in slice            2
                  in element         8635

   using moment tensor source:
     xi coordinate of source in that element:   0.74837496107366031
     eta coordinate of source in that element:   -2.4781515235070654E-002
     gamma coordinate of source in that element:  -0.45745666669445462

   source time function:
     using (quasi) Heaviside source time function

     half duration:    11.800000000000001       seconds
     time shift:    50.000000000000000       seconds

   magnitude of the source:
        scalar moment M0 =    4.8783347691604767E+027  dyne-cm
     moment magnitude Mw =    7.7588477332499259


   original (requested) position of the source:

         latitude:    38.105699999999999
        longitude:    142.06610000000001
            depth:    29.579999999999998       km

   position of the source that will be used:

         latitude:    38.105700000000006
        longitude:    142.06610000000001
            depth:    29.579999999999504       km

   Error in location of the source:    7.07323089E-13  km

 source #           39

   source located in slice            2
                  in element         8636

   using moment tensor source:
     xi coordinate of source in that element:   -2.8887514766090715E-002
     eta coordinate of source in that element:  -0.29151628638149141
     gamma coordinate of source in that element:  -0.87444208831251369

   source time function:
     using (quasi) Heaviside source time function

     half duration:    11.800000000000001       seconds
     time shift:    50.799999999999997       seconds

   magnitude of the source:
        scalar moment M0 =    3.7503414704530573E+027  dyne-cm
     moment magnitude Mw =    7.6827138748374928


   original (requested) position of the source:

         latitude:    37.188400000000001
        longitude:    142.44120000000001
            depth:    14.050000000000001       km

   position of the source that will be used:

         latitude:    37.188400000000009
        longitude:    142.44120000000001
            depth:    14.049999999999523       km

   Error in location of the source:    1.06098463E-12  km

 source #           40

   source located in slice            2
                  in element         8636

   using moment tensor source:
     xi coordinate of source in that element:   0.64038566964722576
     eta coordinate of source in that element:  -0.54495209691621382
     gamma coordinate of source in that element:  -0.87373001524493588

   source time function:
     using (quasi) Heaviside source time function

     half duration:    12.600000000000000       seconds
     time shift:    50.799999999999997       seconds

   magnitude of the source:
        scalar moment M0 =    3.1182249926841392E+027  dyne-cm
     moment magnitude Mw =    7.6292716320707719


   original (requested) position of the source:

         latitude:    38.231499999999997
        longitude:    142.79759999999999
            depth:    14.050000000000001       km

   position of the source that will be used:

         latitude:    38.231500000000004
        longitude:    142.79759999999999
            depth:    14.050000000000939       km

   Error in location of the source:    1.00030596E-12  km

 source #           41

   source located in slice            0
                  in element         8512

   using moment tensor source:
     xi coordinate of source in that element:  -0.86815848349128311
     eta coordinate of source in that element:   0.86093191432443583
     gamma coordinate of source in that element:  -0.87368864494589826

   source time function:
     using (quasi) Heaviside source time function

     half duration:    14.000000000000000       seconds
     time shift:    51.200000000000003       seconds

   magnitude of the source:
        scalar moment M0 =    3.3958269184397491E+027  dyne-cm
     moment magnitude Mw =    7.6539636977495284


   original (requested) position of the source:

         latitude:    39.013800000000003
        longitude:    143.06440000000001
            depth:    14.050000000000001       km

   position of the source that will be used:

         latitude:    39.013800000000018
        longitude:    143.06440000000001
            depth:    14.049999999997400       km

   Error in location of the source:    2.34592532E-12  km

 source #           42

   source located in slice            0
                  in element         8511

   using moment tensor source:
     xi coordinate of source in that element:  -0.89531472349441443
     eta coordinate of source in that element:   0.42436967457291108
     gamma coordinate of source in that element:  -0.45777741153894941

   source time function:
     using (quasi) Heaviside source time function

     half duration:    16.199999999999999       seconds
     time shift:    51.200000000000003       seconds

   magnitude of the source:
        scalar moment M0 =    2.8951873339575108E+027  dyne-cm
     moment magnitude Mw =    7.6077844467508378


   original (requested) position of the source:

         latitude:    39.409599999999998
        longitude:    142.51130000000001
            depth:    29.579999999999998       km

   position of the source that will be used:

         latitude:    39.409600000000026
        longitude:    142.51130000000001
            depth:    29.579999999998797       km

   Error in location of the source:    2.26453882E-12  km

 source #           43

   source located in slice            2
                  in element         8636

   using moment tensor source:
     xi coordinate of source in that element:   0.54994686751279009
     eta coordinate of source in that element:  -0.69713098462171952
     gamma coordinate of source in that element:  -0.18299681195316178

   source time function:
     using (quasi) Heaviside source time function

     half duration:    14.800000000000001       seconds
     time shift:    51.399999999999999       seconds

   magnitude of the source:
        scalar moment M0 =    1.3151767771672369E+027  dyne-cm
     moment magnitude Mw =    7.3793227544508220


   original (requested) position of the source:

         latitude:    38.186500000000002
        longitude:    143.01159999999999
            depth:    8.8710000000000004       km

   position of the source that will be used:

         latitude:    38.186500000000009
        longitude:    143.01159999999999
            depth:    8.8710000000003486       km

   Error in location of the source:    0.00000000      km

 source #           44

   source located in slice            2
                  in element         8636

   using moment tensor source:
     xi coordinate of source in that element:    1.0493506804365802
     eta coordinate of source in that element:  -0.88692913258342299
     gamma coordinate of source in that element:  -0.18378784555547992

   source time function:
     using (quasi) Heaviside source time function

     half duration:    14.400000000000000       seconds
     time shift:    53.399999999999999       seconds

   magnitude of the source:
        scalar moment M0 =    1.6432564866143084E+027  dyne-cm
     moment magnitude Mw =    7.4438035701973853


   original (requested) position of the source:

         latitude:    38.968800000000002
        longitude:    143.27850000000001
            depth:    8.8710000000000004       km

   position of the source that will be used:

         latitude:    38.968800000000002
        longitude:    143.27850000000001
            depth:    8.8710000000003486       km

   Error in location of the source:    1.73258066E-12  km

 source #           45

   source located in slice            2
                  in element         8636

   using moment tensor source:
     xi coordinate of source in that element:   0.71676910725664722
     eta coordinate of source in that element:  -0.76034893372455936
     gamma coordinate of source in that element:  -0.18298969010435320

   source time function:
     using (quasi) Heaviside source time function

     half duration:    14.199999999999999       seconds
     time shift:    54.000000000000000       seconds

   magnitude of the source:
        scalar moment M0 =    1.8915561160060782E+027  dyne-cm
     moment magnitude Mw =    7.4845461532353816


   original (requested) position of the source:

         latitude:    38.447299999999998
        longitude:    143.10050000000001
            depth:    8.8710000000000004       km

   position of the source that will be used:

         latitude:    38.447300000000013
        longitude:    143.10050000000001
            depth:    8.8710000000010574       km

   Error in location of the source:    7.07323089E-13  km

 source #           46

   source located in slice            2
                  in element         8635

   using moment tensor source:
     xi coordinate of source in that element:   0.15533106573609676
     eta coordinate of source in that element:    1.2977020217243907E-002
     gamma coordinate of source in that element:    6.0191847756604418E-002

   source time function:
     using (quasi) Heaviside source time function

     half duration:    8.5999999999999996       seconds
     time shift:    54.200000000000003       seconds

   magnitude of the source:
        scalar moment M0 =    4.2595761068444360E+027  dyne-cm
     moment magnitude Mw =    7.7195775881939603


   original (requested) position of the source:

         latitude:    37.278399999999998
        longitude:    142.01300000000001
            depth:    24.399999999999999       km

   position of the source that will be used:

         latitude:    37.278400000000005
        longitude:    142.01300000000001
            depth:    24.399999999998254       km

   Error in location of the source:    3.53661544E-13  km

 source #           47

   source located in slice            0
                  in element         8511

   using moment tensor source:
     xi coordinate of source in that element:  -0.22917145240743525
     eta coordinate of source in that element:   0.91981415123502086
     gamma coordinate of source in that element:  -0.45824081422410362

   source time function:
     using (quasi) Heaviside source time function

     half duration:    12.199999999999999       seconds
     time shift:    54.200000000000003       seconds

   magnitude of the source:
        scalar moment M0 =    6.0315283614520140E+027  dyne-cm
     moment magnitude Mw =    7.8202849162019064


   original (requested) position of the source:

         latitude:    38.627299999999998
        longitude:    142.24440000000001
            depth:    29.579999999999998       km

   position of the source that will be used:

         latitude:    38.627300000000012
        longitude:    142.24440000000001
            depth:    29.579999999997380       km

   Error in location of the source:    2.12196927E-12  km

 source #           48

   source located in slice            0
                  in element         8511

   using moment tensor source:
     xi coordinate of source in that element:  -0.80282105823723438
     eta coordinate of source in that element:   0.77080788207196649
     gamma coordinate of source in that element:   0.57779821176348201

   source time function:
     using (quasi) Heaviside source time function

     half duration:    14.000000000000000       seconds
     time shift:    55.399999999999999       seconds

   magnitude of the source:
        scalar moment M0 =    4.2329251895113846E+027  dyne-cm
     moment magnitude Mw =    7.7177603953667209


   original (requested) position of the source:

         latitude:    39.058799999999998
        longitude:    142.85040000000001
            depth:    19.219999999999999       km

   position of the source that will be used:

         latitude:    39.058800000000005
        longitude:    142.85040000000001
            depth:    19.219999999999132       km

   Error in location of the source:    1.06098463E-12  km

 source #           49

   source located in slice            0
                  in element         8447

   using moment tensor source:
     xi coordinate of source in that element:   0.94786605139749014
     eta coordinate of source in that element:   0.16902219095646739
     gamma coordinate of source in that element:  -0.97450793880805553

   source time function:
     using (quasi) Heaviside source time function

     half duration:    10.199999999999999       seconds
     time shift:    56.000000000000000       seconds

   magnitude of the source:
        scalar moment M0 =    5.9519401399879678E+026  dyne-cm
     moment magnitude Mw =    7.1497723698411129


   original (requested) position of the source:

         latitude:    39.715400000000002
        longitude:    142.38669999999999
            depth:    34.750000000000000       km

   position of the source that will be used:

         latitude:    39.715400000000002
        longitude:    142.38669999999999
            depth:    34.749999999999815       km

   Error in location of the source:    1.00030596E-12  km

 source #           50

   source located in slice            2
                  in element         8635

   using moment tensor source:
     xi coordinate of source in that element:   0.67470021825107340
     eta coordinate of source in that element:   0.19061021919247717
     gamma coordinate of source in that element:  -0.97387267904484054

   source time function:
     using (quasi) Heaviside source time function

     half duration:    12.000000000000000       seconds
     time shift:    56.200000000000003       seconds

   magnitude of the source:
        scalar moment M0 =    3.8102285344845135E+027  dyne-cm
     moment magnitude Mw =    7.6873006833968667


   original (requested) position of the source:

         latitude:    37.890000000000001
        longitude:    141.76320000000001
            depth:    34.750000000000000       km

   position of the source that will be used:

         latitude:    37.890000000000001
        longitude:    141.76320000000001
            depth:    34.749999999999112       km

   Error in location of the source:    1.00030596E-12  km

 source #           51

   source located in slice            2
                  in element         8635

   using moment tensor source:
     xi coordinate of source in that element:  -0.10495002878000699
     eta coordinate of source in that element:   -7.5910496787367179E-002
     gamma coordinate of source in that element:   0.57743988990962247

   source time function:
     using (quasi) Heaviside source time function

     half duration:    11.000000000000000       seconds
     time shift:    56.600000000000001       seconds

   magnitude of the source:
        scalar moment M0 =    3.3562356725951174E+027  dyne-cm
     moment magnitude Mw =    7.6505682993944681


   original (requested) position of the source:

         latitude:    36.972600000000000
        longitude:    142.13800000000001
            depth:    19.219999999999999       km

   position of the source that will be used:

         latitude:    36.972600000000007
        longitude:    142.13800000000001
            depth:    19.220000000001253       km

   Error in location of the source:    1.22511951E-12  km

 source #           52

   source located in slice            0
                  in element         8511

   using moment tensor source:
     xi coordinate of source in that element:  -0.45215607803573071
     eta coordinate of source in that element:   0.75434607292786104
     gamma coordinate of source in that element:  -0.45818736107063990

   source time function:
     using (quasi) Heaviside source time function

     half duration:    12.600000000000000       seconds
     time shift:    57.200000000000003       seconds

   magnitude of the source:
        scalar moment M0 =    5.1289094757072873E+027  dyne-cm
     moment magnitude Mw =    7.7733500226113605


   original (requested) position of the source:

         latitude:    38.888100000000001
        longitude:    142.33340000000001
            depth:    29.579999999999998       km

   position of the source that will be used:

         latitude:    38.888100000000016
        longitude:    142.33340000000001
            depth:    29.580000000001625       km

   Error in location of the source:    1.27514481E-12  km

 source #           53

   source located in slice            2
                  in element         8636

   using moment tensor source:
     xi coordinate of source in that element:   0.13894839839164272
     eta coordinate of source in that element:  -0.35487513238258289
     gamma coordinate of source in that element:  -0.87413368867797381

   source time function:
     using (quasi) Heaviside source time function

     half duration:    18.600000000000001       seconds
     time shift:    57.200000000000003       seconds

   magnitude of the source:
        scalar moment M0 =    3.2894683225408930E+027  dyne-cm
     moment magnitude Mw =    7.6447504723422881


   original (requested) position of the source:

         latitude:    37.449199999999998
        longitude:    142.53030000000001
            depth:    14.050000000000001       km

   position of the source that will be used:

         latitude:    37.449200000000005
        longitude:    142.53030000000004
            depth:    14.049999999999523       km

   Error in location of the source:    1.45818394E-12  km

 source #           54

   source located in slice            0
                  in element         8447

   using moment tensor source:
     xi coordinate of source in that element:   0.88411606140316257
     eta coordinate of source in that element:   0.25986863381070180
     gamma coordinate of source in that element:  -0.45725628569549148

   source time function:
     using (quasi) Heaviside source time function

     half duration:    10.400000000000000       seconds
     time shift:    57.799999999999997       seconds

   magnitude of the source:
        scalar moment M0 =    1.0124739256148773E+027  dyne-cm
     moment magnitude Mw =    7.3035892317220750


   original (requested) position of the source:

         latitude:    39.670499999999997
        longitude:    142.60079999999999
            depth:    29.579999999999998       km

   position of the source that will be used:

         latitude:    39.670500000000011
        longitude:    142.60079999999999
            depth:    29.579999999998797       km

   Error in location of the source:    1.62068080E-12  km

 source #           55

   source located in slice            2
                  in element         8636

   using moment tensor source:
     xi coordinate of source in that element:  -0.19703713398015016
     eta coordinate of source in that element:  -0.22808629499365088
     gamma coordinate of source in that element:  -0.87472259521670614

   source time function:
     using (quasi) Heaviside source time function

     half duration:    13.199999999999999       seconds
     time shift:    58.399999999999999       seconds

   magnitude of the source:
        scalar moment M0 =    3.5793386127886815E+027  dyne-cm
     moment magnitude Mw =    7.6692018569893357


   original (requested) position of the source:

         latitude:    36.927599999999998
        longitude:    142.35200000000000
            depth:    14.050000000000001       km

   position of the source that will be used:

         latitude:    36.927599999999998
        longitude:    142.35200000000000
            depth:    14.050000000000939       km

   Error in location of the source:    1.00030596E-12  km

 source #           56

   source located in slice            0
                  in element         8511

   using moment tensor source:
     xi coordinate of source in that element:  -0.83192023276657057
     eta coordinate of source in that element:   0.33326342382525692
     gamma coordinate of source in that element:  -0.97496608326242218

   source time function:
     using (quasi) Heaviside source time function

     half duration:    14.800000000000001       seconds
     time shift:    59.200000000000003       seconds

   magnitude of the source:
        scalar moment M0 =    2.1606791444358413E+027  dyne-cm
     moment magnitude Mw =    7.5230601866691167


   original (requested) position of the source:

         latitude:    39.454599999999999
        longitude:    142.29750000000001
            depth:    34.750000000000000       km

   position of the source that will be used:

         latitude:    39.454600000000013
        longitude:    142.29750000000001
            depth:    34.749999999997691       km

   Error in location of the source:    2.03163094E-12  km

 source #           57

   source located in slice            2
                  in element         8635

   using moment tensor source:
     xi coordinate of source in that element:   0.50822176292063881
     eta coordinate of source in that element:   0.25404091088937275
     gamma coordinate of source in that element:  -0.97374348447595560

   source time function:
     using (quasi) Heaviside source time function

     half duration:    12.000000000000000       seconds
     time shift:    59.799999999999997       seconds

   magnitude of the source:
        scalar moment M0 =    3.1751684750576619E+027  dyne-cm
     moment magnitude Mw =    7.6345111826594412


   original (requested) position of the source:

         latitude:    37.629199999999997
        longitude:    141.67400000000001
            depth:    34.750000000000000       km

   position of the source that will be used:

         latitude:    37.629200000000004
        longitude:    141.67400000000001
            depth:    34.749999999998401       km

   Error in location of the source:    1.00030596E-12  km

 source #           58

   source located in slice            0
                  in element         1784

   using moment tensor source:
     xi coordinate of source in that element:  -0.48606933498039973
     eta coordinate of source in that element:   0.31358639956826057
     gamma coordinate of source in that element:   0.56915272836479835

   source time function:
     using (quasi) Heaviside source time function

     half duration:    16.199999999999999       seconds
     time shift:    59.799999999999997       seconds

   magnitude of the source:
        scalar moment M0 =    3.6035314942428348E+027  dyne-cm
     moment magnitude Mw =    7.6711522147138709


   original (requested) position of the source:

         latitude:    39.283799999999999
        longitude:    141.78010000000000
            depth:    45.109999999999999       km

   position of the source that will be used:

         latitude:    39.283800000000021
        longitude:    141.78010000000000
            depth:    45.110000000000191       km

   Error in location of the source:    1.06098463E-12  km

 source #           59

   source located in slice            2
                  in element         8635

   using moment tensor source:
     xi coordinate of source in that element:   -1.2371747916174597E-002
     eta coordinate of source in that element:    7.6336214409625971E-002
     gamma coordinate of source in that element:    5.9991318540997728E-002

   source time function:
     using (quasi) Heaviside source time function

     half duration:    11.800000000000001       seconds
     time shift:    60.000000000000000       seconds

   magnitude of the source:
        scalar moment M0 =    2.3487114275704451E+027  dyne-cm
     moment magnitude Mw =    7.5472197738890650


   original (requested) position of the source:

         latitude:    37.017600000000002
        longitude:    141.92390000000000
            depth:    24.399999999999999       km

   position of the source that will be used:

         latitude:    37.017600000000016
        longitude:    141.92390000000000
            depth:    24.400000000000379       km

   Error in location of the source:    0.00000000      km

 source #           60

   source located in slice            0
                  in element         1784

   using moment tensor source:
     xi coordinate of source in that element:    1.8787785377052019E-002
     eta coordinate of source in that element:   0.54929474961568925
     gamma coordinate of source in that element:   0.39252374961243452

   source time function:
     using (quasi) Heaviside source time function

     half duration:    11.600000000000000       seconds
     time shift:    60.799999999999997       seconds

   magnitude of the source:
        scalar moment M0 =    2.3590102712790383E+027  dyne-cm
     moment magnitude Mw =    7.5484865545567921


   original (requested) position of the source:

         latitude:    38.807299999999998
        longitude:    141.38820000000001
            depth:    50.280000000000001       km

   position of the source that will be used:

         latitude:    38.807300000000012
        longitude:    141.38820000000001
            depth:    50.279999999998388       km

   Error in location of the source:    1.06098463E-12  km

 source #           61

   source located in slice            0
                  in element         1784

   using moment tensor source:
     xi coordinate of source in that element:   0.18118832888979769
     eta coordinate of source in that element:   0.80751848672409099
     gamma coordinate of source in that element:   0.62547697198366459

   source time function:
     using (quasi) Heaviside source time function

     half duration:    15.400000000000000       seconds
     time shift:    61.200000000000003       seconds

   magnitude of the source:
        scalar moment M0 =    3.4183754262807361E+027  dyne-cm
     moment magnitude Mw =    7.6558798385346982


   original (requested) position of the source:

         latitude:    38.501500000000000
        longitude:    141.51300000000001
            depth:    45.109999999999999       km

   position of the source that will be used:

         latitude:    38.501500000000021
        longitude:    141.51300000000001
            depth:    45.110000000000191       km

   Error in location of the source:    1.27514481E-12  km

 source #           62

   source located in slice            0
                  in element         8511

   using moment tensor source:
     xi coordinate of source in that element:  -0.58038996183103331
     eta coordinate of source in that element:   0.93648167062526710
     gamma coordinate of source in that element:   0.57721557152116931

   source time function:
     using (quasi) Heaviside source time function

     half duration:    16.800000000000001       seconds
     time shift:    61.600000000000001       seconds

   magnitude of the source:
        scalar moment M0 =    5.1406494458385315E+027  dyne-cm
     moment magnitude Mw =    7.7740119928096547


   original (requested) position of the source:

         latitude:    38.798000000000002
        longitude:    142.76140000000001
            depth:    19.219999999999999       km

   position of the source that will be used:

         latitude:    38.798000000000016
        longitude:    142.76140000000001
            depth:    19.220000000001253       km

   Error in location of the source:    1.73258066E-12  km

 source #           63

   source located in slice            2
                  in element         1772

   using moment tensor source:
     xi coordinate of source in that element:   0.78989730677500014
     eta coordinate of source in that element:   0.71071175738617154
     gamma coordinate of source in that element:   0.43130897869434998

   source time function:
     using (quasi) Heaviside source time function

     half duration:    9.8000000000000007       seconds
     time shift:    61.799999999999997       seconds

   magnitude of the source:
        scalar moment M0 =    1.9623570394362494E+027  dyne-cm
     moment magnitude Mw =    7.4951853517234674


   original (requested) position of the source:

         latitude:    37.764099999999999
        longitude:    141.03180000000000
            depth:    50.280000000000001       km

   position of the source that will be used:

         latitude:    37.764100000000013
        longitude:    141.03180000000000
            depth:    50.280000000001216       km

   Error in location of the source:    1.00030596E-12  km

 source #           64

   source located in slice            0
                  in element         8447

   using moment tensor source:
     xi coordinate of source in that element:   0.97553537160163561
     eta coordinate of source in that element:   0.60550955086559854
     gamma coordinate of source in that element:   0.57860627131149345

   source time function:
     using (quasi) Heaviside source time function

     half duration:    16.600000000000001       seconds
     time shift:    62.600000000000001       seconds

   magnitude of the source:
        scalar moment M0 =    2.5748561571474241E+027  dyne-cm
     moment magnitude Mw =    7.5738353149629205


   original (requested) position of the source:

         latitude:    39.319600000000001
        longitude:    142.93969999999999
            depth:    19.219999999999999       km

   position of the source that will be used:

         latitude:    39.319600000000015
        longitude:    142.93969999999999
            depth:    19.220000000000542       km

   Error in location of the source:    7.90811264E-13  km

 source #           65

   source located in slice            0
                  in element         1784

   using moment tensor source:
     xi coordinate of source in that element:   0.46595469239207532
     eta coordinate of source in that element:   0.87899348424100099
     gamma coordinate of source in that element:   0.44430630956837042

   source time function:
     using (quasi) Heaviside source time function

     half duration:    11.600000000000000       seconds
     time shift:    63.399999999999999       seconds

   magnitude of the source:
        scalar moment M0 =    1.0547470711976402E+027  dyne-cm
     moment magnitude Mw =    7.3154322187430836


   original (requested) position of the source:

         latitude:    38.285699999999999
        longitude:    141.20990000000000
            depth:    50.280000000000001       km

   position of the source that will be used:

         latitude:    38.285699999999999
        longitude:    141.20990000000000
            depth:    50.280000000000499       km

   Error in location of the source:    1.06098463E-12  km

 source #           66

   source located in slice            2
                  in element         8635

   using moment tensor source:
     xi coordinate of source in that element:  -0.18042784308236240
     eta coordinate of source in that element:   0.13969571883527290
     gamma coordinate of source in that element:    5.9789137499877090E-002

   source time function:
     using (quasi) Heaviside source time function

     half duration:    8.8000000000000007       seconds
     time shift:    64.000000000000000       seconds

   magnitude of the source:
        scalar moment M0 =    7.3306090142634133E+026  dyne-cm
     moment magnitude Mw =    7.2100933710474244


   original (requested) position of the source:

         latitude:    36.756799999999998
        longitude:    141.83480000000000
            depth:    24.399999999999999       km

   position of the source that will be used:

         latitude:    36.756799999999998
        longitude:    141.83480000000003
            depth:    24.399999999998965       km

   Error in location of the source:    1.41464618E-12  km

 source #           67

   source located in slice            0
                  in element         1784

   using moment tensor source:
     xi coordinate of source in that element:   0.24188254603259871
     eta coordinate of source in that element:   0.71402206456744066
     gamma coordinate of source in that element:   0.41961634401537523

   source time function:
     using (quasi) Heaviside source time function

     half duration:    10.800000000000001       seconds
     time shift:    64.599999999999994       seconds

   magnitude of the source:
        scalar moment M0 =    1.9473367800665607E+027  dyne-cm
     moment magnitude Mw =    7.4929607110719907


   original (requested) position of the source:

         latitude:    38.546500000000002
        longitude:    141.29920000000001
            depth:    50.280000000000001       km

   position of the source that will be used:

         latitude:    38.546500000000009
        longitude:    141.29920000000001
            depth:    50.279999999999795       km

   Error in location of the source:    0.00000000      km

 source #           68

   source located in slice            0
                  in element         8448

   using moment tensor source:
     xi coordinate of source in that element:   0.90992284223157938
     eta coordinate of source in that element:   0.69533412190955257
     gamma coordinate of source in that element:  -0.87235615029910574

   source time function:
     using (quasi) Heaviside source time function

     half duration:    11.199999999999999       seconds
     time shift:    64.599999999999994       seconds

   magnitude of the source:
        scalar moment M0 =    2.4828039974996008E+027  dyne-cm
     moment magnitude Mw =    7.5632949573069510


   original (requested) position of the source:

         latitude:    39.274700000000003
        longitude:    143.15379999999999
            depth:    14.050000000000001       km

   position of the source that will be used:

         latitude:    39.274700000000024
        longitude:    143.15379999999999
            depth:    14.049999999998816       km

   Error in location of the source:    2.47563081E-12  km

 source #           69

   source located in slice            2
                  in element         8635

   using moment tensor source:
     xi coordinate of source in that element:   0.24810344050149735
     eta coordinate of source in that element:   0.16515297090337575
     gamma coordinate of source in that element:  -0.45727280201413334

   source time function:
     using (quasi) Heaviside source time function

     half duration:    12.400000000000000       seconds
     time shift:    64.599999999999994       seconds

   magnitude of the source:
        scalar moment M0 =    3.6825072710383066E+027  dyne-cm
     moment magnitude Mw =    7.6774290753476286


   original (requested) position of the source:

         latitude:    37.323399999999999
        longitude:    141.79900000000001
            depth:    29.579999999999998       km

   position of the source that will be used:

         latitude:    37.323400000000014
        longitude:    141.79900000000001
            depth:    29.580000000000211       km

   Error in location of the source:    0.00000000      km

 source #           70

   source located in slice            2
                  in element         8635

   using moment tensor source:
     xi coordinate of source in that element:   0.58197261607242901
     eta coordinate of source in that element:    3.8434874214224306E-002
     gamma coordinate of source in that element:  -0.45721493055290496

   source time function:
     using (quasi) Heaviside source time function

     half duration:    15.000000000000000       seconds
     time shift:    65.000000000000000       seconds

   magnitude of the source:
        scalar moment M0 =    5.7923725398147523E+027  dyne-cm
     moment magnitude Mw =    7.8085709906599980


   original (requested) position of the source:

         latitude:    37.844999999999999
        longitude:    141.97720000000001
            depth:    29.579999999999998       km

   position of the source that will be used:

         latitude:    37.845000000000013
        longitude:    141.97720000000001
            depth:    29.580000000000918       km

   Error in location of the source:    3.53661544E-13  km

[...]

     half duration:    6.7999999999999998       seconds
     time shift:    190.40000000000001       seconds

   magnitude of the source:
        scalar moment M0 =    1.1252812786365906E+027  dyne-cm
     moment magnitude Mw =    7.3341740623670049


   original (requested) position of the source:

         latitude:    35.542900000000003
        longitude:    140.96140000000000
            depth:    34.750000000000000       km

   position of the source that will be used:

         latitude:    35.542900000000003
        longitude:    140.96140000000003
            depth:    34.749999999998401       km

   Error in location of the source:    2.34592532E-12  km

 source #          236

   source located in slice            0
                  in element         8511

   using moment tensor source:
     xi coordinate of source in that element:   0.74841689795185840
     eta coordinate of source in that element:  -0.89710455043383419
     gamma coordinate of source in that element:   0.65219293157725278

   source time function:
     using (quasi) Heaviside source time function

     half duration:    3.2000000000000002       seconds
     time shift:    191.40000000000001       seconds

   magnitude of the source:
        scalar moment M0 =    9.8242908204612915E+026  dyne-cm
     moment magnitude Mw =    7.2948674733682672


   original (requested) position of the source:

         latitude:    34.805599999999998
        longitude:    140.48030000000000
            depth:    39.930000000000000       km

   position of the source that will be used:

         latitude:    34.805600000000013
        longitude:    140.48029999999997
            depth:    39.930000000001066       km

   Error in location of the source:    1.73258066E-12  km

 source #          237

   source located in slice            2
                  in element         8636

   using moment tensor source:
     xi coordinate of source in that element:   0.91884406688178144
     eta coordinate of source in that element:    1.0394662629556519
     gamma coordinate of source in that element:   0.65207235927064811

   source time function:
     using (quasi) Heaviside source time function

     half duration:    3.2000000000000002       seconds
     time shift:    191.40000000000001       seconds

   magnitude of the source:
        scalar moment M0 =    1.1272103547794439E+027  dyne-cm
     moment magnitude Mw =    7.3346699797569812


   original (requested) position of the source:

         latitude:    35.066400000000002
        longitude:    140.56950000000001
            depth:    39.930000000000000       km

   position of the source that will be used:

         latitude:    35.066400000000037
        longitude:    140.56950000000001
            depth:    39.929999999998948       km

   Error in location of the source:    1.73258066E-12  km

 source #          238

   source located in slice            2
                  in element         8635

   using moment tensor source:
     xi coordinate of source in that element:  -0.91110982353696324
     eta coordinate of source in that element:   -1.0236801886060938
     gamma coordinate of source in that element:   0.66665801156334736

   source time function:
     using (quasi) Heaviside source time function

     half duration:    3.2000000000000002       seconds
     time shift:    191.40000000000001       seconds

   magnitude of the source:
        scalar moment M0 =    9.8391166655294827E+026  dyne-cm
     moment magnitude Mw =    7.2953040734456671


   original (requested) position of the source:

         latitude:    35.327100000000002
        longitude:    140.65830000000000
            depth:    39.930000000000000       km

   position of the source that will be used:

         latitude:    35.327100000000030
        longitude:    140.65830000000003
            depth:    39.929999999999652       km

   Error in location of the source:    2.64656070E-12  km

 source #          239

   source located in slice            2
                  in element         8636

   using moment tensor source:
     xi coordinate of source in that element:  -0.74151206438635398
     eta coordinate of source in that element:   0.91288767453448250
     gamma coordinate of source in that element:   0.69159068385244105

   source time function:
     using (quasi) Heaviside source time function

     half duration:    3.2000000000000002       seconds
     time shift:    191.40000000000001       seconds

   magnitude of the source:
        scalar moment M0 =    2.6656892588972177E+026  dyne-cm
     moment magnitude Mw =    6.9172063480284578


   original (requested) position of the source:

         latitude:    35.587899999999998
        longitude:    140.74750000000000
            depth:    39.930000000000000       km

   position of the source that will be used:

         latitude:    35.587900000000005
        longitude:    140.74750000000000
            depth:    39.929999999998238       km

   Error in location of the source:    2.34592532E-12  km

 ********************
 finite source combined over all          239  sources applied:
      total scalar moment M0 =    4.0402054302931633E+029  dyne-cm
   total moment magnitude Mw =    9.0376022986833924
 ********************

 maximum error in location of the sources:    3.31763935E-12  km


 Elapsed time for detection of sources in seconds =    5.3472000000000186E-002

 End of source detection - done


 receivers:

 Total number of receivers =            7


 ********************
  locating receivers
 ********************

 reading receiver information...

 Stations sorted by epicentral distance:
 Station #     7:                   IU.YSS    epicentral distance:      8.637074 degrees
 Station #     5:                  IU.TATO    epicentral distance:     22.134560 degrees
 Station #     3:                  IU.GUMO    epicentral distance:     24.733082 degrees
 Station #     6:                  IU.WAKE    epicentral distance:     28.363579 degrees
 Station #     1:                   IU.ADK    epicentral distance:     31.478851 degrees
 Station #     2:                  IU.BILL    epicentral distance:     32.640888 degrees
 Station #     4:                  IU.JOHN    epicentral distance:     47.155598 degrees

 Station #           1 : IU.ADK
        original latitude:    51.8823013
       original longitude:   -176.684204
      epicentral distance:    31.4788513
   closest estimate found:    1.93498810E-04  km away
    in slice            0  in element         7612
    at xi,eta,gamma coordinates =  -0.86007560118570014       0.20506563158327312        1.0000000000000000
    at lat/lon =    51.8823013       183.315796

 Station #           2 : IU.BILL
        original latitude:    68.0653000
       original longitude:    166.453094
      epicentral distance:    32.6408882
   closest estimate found:    2.28117147E-04  km away
    in slice            0  in element         7728
    at xi,eta,gamma coordinates =   0.85753162288743012       0.29638307725255048        1.0000000000000000
    at lat/lon =    68.0653000       166.453094

 Station #           3 : IU.GUMO
        original latitude:    13.5893002
       original longitude:    144.868393
      epicentral distance:    24.7330818
   closest estimate found:    2.17768596E-03  km away
    in slice            2  in element         7994
    at xi,eta,gamma coordinates =   0.63547616420277309       -1.7531280976291235E-002   1.0000000000000000
    at lat/lon =    13.5893002       144.868393

 Station #           4 : IU.JOHN
        original latitude:    16.7329006
       original longitude:   -169.529205
      epicentral distance:    47.1555977
   closest estimate found:    3.90270521E-04  km away
    in slice            2  in element         8026
    at xi,eta,gamma coordinates =  -0.98699441072987937      -0.44592969953540618        1.0000000000000000
    at lat/lon =    16.7329006       190.470795

 Station #           5 : IU.TATO
        original latitude:    24.9734993
       original longitude:    121.497101
      epicentral distance:    22.1345596
   closest estimate found:    6.77882135E-03  km away
    in slice            3  in element         6968
    at xi,eta,gamma coordinates =   0.74505981730551085      -0.60208455907707370        1.0000000000000000
    at lat/lon =    24.9734993       121.497101

 Station #           6 : IU.WAKE
        original latitude:    19.2833996
       original longitude:    166.651993
      epicentral distance:    28.3635788
   closest estimate found:    9.62901337E-04  km away
    in slice            2  in element         8042
    at xi,eta,gamma coordinates =   0.97771717395570223       0.49193679166884019        1.0000000000000000
    at lat/lon =    19.2833996       166.651993

 Station #           7 : IU.YSS
        original latitude:    46.9586983
       original longitude:    142.760406
      epicentral distance:    8.63707447
   closest estimate found:    1.99756003E-03  km away
    in slice            0  in element         8316
    at xi,eta,gamma coordinates =    7.4662898842688813E-002 -0.82201359365878124        1.0000000000000000
    at lat/lon =    46.9586983       142.760406

 maximum error in location of all the receivers:    6.77882135E-03  km

 Elapsed time for receiver detection in seconds =    1.7990000000001061E-003

 End of receiver detection - done


 found a total of            7  receivers in all slices
 this total is okay

 source arrays:
   number of sources is          239
   size of source array                 =   0.341892242     MB
                                        =    3.33879143E-04 GB

 seismograms:
   seismograms written by all processes
   writing out seismograms at every NTSTEP_BETWEEN_OUTPUT_SEISMOS =         1600
   maximum number of local receivers is            3  in slice            0
   size of maximum seismogram array       =    5.49316406E-02 MB
                                          =    5.36441803E-05 GB


 Total number of samples for seismograms =         1600

 Using          239  point sources

 Reference radius of the globe used is    6371.0000000000000       km


 no oceans

 no ellipticity

 no surface topography

 no self-gravitation

 no rotation

 no attenuation



 preparing mass matrices
 preparing constants
 preparing gravity arrays
 preparing elastic element arrays
   crust/mantle transverse isotropic and isotropic elements
   tiso elements =         8640
   iso elements  =            0
   inner core isotropic elements
 preparing wavefields
   allocating wavefields
   initializing wavefields
 preparing number of runs
   number of runs    :            1
   number of this run:            1
   time stepping     : begin/end =            1 /        1600
 preparing optimized arrays
   using force vectorization
   using Deville products
   inverse table of ibool done
   fusing arrays:
     size of fused arrays =    40.4434204     MB
                          =    3.94955277E-02 GB
   fused arrays done
   bandwidth test (STREAM TRIAD):
      memory accesses =    19.7758369     MB
      timing  min/max =    3.94999981E-03 s /    4.14599990E-03 s
      timing      avg =    4.06809989E-03 s
      bandwidth       =    4.74726295     GB/s


 Elapsed time for preparing timerun in seconds =    1.02931201


 time loop:

               scheme:         Newmark
            time step:   0.115000002      s
 number of time steps:         1600
   current time steps:            1  to         1600
 total simulated time:    2.74974990      minutes
 start time          :  -18.8999996      seconds

 All processes are synchronized before time loop

 Starting time iteration loop...

 Time step #            5
 Time:  -0.307333320      minutes
 Max norm displacement vector U in solid in all slices for forward prop. (m) =    1.28294523E-05
 Max non-dimensional potential Ufluid in fluid in all slices for forward prop. =    0.00000000
 Elapsed time in seconds =   0.57759599999999978
 Elapsed time in hh:mm:ss =      0 h 00 m 00 s
 Mean elapsed time per time step in seconds =   0.11551919999999996
 Time steps done =            5  out of         1600
 Time steps remaining =         1595
 Estimated remaining time in seconds =    184.25312399999993
 Estimated remaining time in hh:mm:ss =      0 h 03 m 04 s
 Estimated total run time in seconds =    184.83071999999993
 Estimated total run time in hh:mm:ss =      0 h 03 m 04 s
 We have done   0.312500000     % of that
 The run will finish approximately on (in local time): Thu Jul 23, 2020 22:48
 ************************************************************
 **** BEWARE: the above time estimates are not very reliable
 **** because fewer than 100 iterations have been performed
 ************************************************************

 Time step #          200
 Time:    6.64166659E-02  minutes
 Max norm displacement vector U in solid in all slices for forward prop. (m) =   0.866530061
 Max non-dimensional potential Ufluid in fluid in all slices for forward prop. =    0.00000000
 Elapsed time in seconds =    29.984035999999996
 Elapsed time in hh:mm:ss =      0 h 00 m 29 s
 Mean elapsed time per time step in seconds =   0.14992017999999999
 Time steps done =          200  out of         1600
 Time steps remaining =         1400
 Estimated remaining time in seconds =    209.88825199999999
 Estimated remaining time in hh:mm:ss =      0 h 03 m 29 s
 Estimated total run time in seconds =    239.87228800000000
 Estimated total run time in hh:mm:ss =      0 h 03 m 59 s
 We have done    12.5000000     % of that
 The run will finish approximately on (in local time): Thu Jul 23, 2020 22:49

 Time step #          400
 Time:   0.449750006      minutes
 Max norm displacement vector U in solid in all slices for forward prop. (m) =    6.42658281
 Max non-dimensional potential Ufluid in fluid in all slices for forward prop. =    0.00000000
 Elapsed time in seconds =    60.216858999999999
 Elapsed time in hh:mm:ss =      0 h 01 m 00 s
 Mean elapsed time per time step in seconds =   0.15054214750000000
 Time steps done =          400  out of         1600
 Time steps remaining =         1200
 Estimated remaining time in seconds =    180.65057700000000
 Estimated remaining time in hh:mm:ss =      0 h 03 m 00 s
 Estimated total run time in seconds =    240.86743600000000
 Estimated total run time in hh:mm:ss =      0 h 04 m 00 s
 We have done    25.0000000     % of that
 The run will finish approximately on (in local time): Thu Jul 23, 2020 22:49

 Time step #          600
 Time:   0.833083332      minutes
 Max norm displacement vector U in solid in all slices for forward prop. (m) =    9.05335808
 Max non-dimensional potential Ufluid in fluid in all slices for forward prop. =    0.00000000
 Elapsed time in seconds =    90.290447000000000
 Elapsed time in hh:mm:ss =      0 h 01 m 30 s
 Mean elapsed time per time step in seconds =   0.15048407833333333
 Time steps done =          600  out of         1600
 Time steps remaining =         1000
 Estimated remaining time in seconds =    150.48407833333331
 Estimated remaining time in hh:mm:ss =      0 h 02 m 30 s
 Estimated total run time in seconds =    240.77452533333332
 Estimated total run time in hh:mm:ss =      0 h 04 m 00 s
 We have done    37.5000000     % of that
 The run will finish approximately on (in local time): Thu Jul 23, 2020 22:50

 Time step #          800
 Time:    1.21641672      minutes
 Max norm displacement vector U in solid in all slices for forward prop. (m) =    12.7255936
 Max non-dimensional potential Ufluid in fluid in all slices for forward prop. =    0.00000000
 Elapsed time in seconds =    120.50847100000000
 Elapsed time in hh:mm:ss =      0 h 02 m 00 s
 Mean elapsed time per time step in seconds =   0.15063558874999999
 Time steps done =          800  out of         1600
 Time steps remaining =          800
 Estimated remaining time in seconds =    120.50847100000000
 Estimated remaining time in hh:mm:ss =      0 h 02 m 00 s
 Estimated total run time in seconds =    241.01694200000000
 Estimated total run time in hh:mm:ss =      0 h 04 m 01 s
 We have done    50.0000000     % of that
 The run will finish approximately on (in local time): Thu Jul 23, 2020 22:49

 Time step #         1000
 Time:    1.59975004      minutes
 Max norm displacement vector U in solid in all slices for forward prop. (m) =    13.0307055
 Max non-dimensional potential Ufluid in fluid in all slices for forward prop. =    1.43755712E-37
 Elapsed time in seconds =    150.82022300000000
 Elapsed time in hh:mm:ss =      0 h 02 m 30 s
 Mean elapsed time per time step in seconds =   0.15082022300000000
 Time steps done =         1000  out of         1600
 Time steps remaining =          600
 Estimated remaining time in seconds =    90.492133800000005
 Estimated remaining time in hh:mm:ss =      0 h 01 m 30 s
 Estimated total run time in seconds =    241.31235680000000
 Estimated total run time in hh:mm:ss =      0 h 04 m 01 s
 We have done    62.5000000     % of that
 The run will finish approximately on (in local time): Thu Jul 23, 2020 22:50

 Time step #         1200
 Time:    1.98308337      minutes
 Max norm displacement vector U in solid in all slices for forward prop. (m) =    13.1891661
 Max non-dimensional potential Ufluid in fluid in all slices for forward prop. =    9.23105722E-33
 Elapsed time in seconds =    181.19421800000001
 Elapsed time in hh:mm:ss =      0 h 03 m 01 s
 Mean elapsed time per time step in seconds =   0.15099518166666667
 Time steps done =         1200  out of         1600
 Time steps remaining =          400
 Estimated remaining time in seconds =    60.398072666666671
 Estimated remaining time in hh:mm:ss =      0 h 01 m 00 s
 Estimated total run time in seconds =    241.59229066666668
 Estimated total run time in hh:mm:ss =      0 h 04 m 01 s
 We have done    75.0000000     % of that
 The run will finish approximately on (in local time): Thu Jul 23, 2020 22:49

 Time step #         1400
 Time:    2.36641669      minutes
 Max norm displacement vector U in solid in all slices for forward prop. (m) =    13.1085024
 Max non-dimensional potential Ufluid in fluid in all slices for forward prop. =    5.68165885E-29
 Elapsed time in seconds =    211.51166799999999
 Elapsed time in hh:mm:ss =      0 h 03 m 31 s
 Mean elapsed time per time step in seconds =   0.15107976285714284
 Time steps done =         1400  out of         1600
 Time steps remaining =          200
 Estimated remaining time in seconds =    30.215952571428566
 Estimated remaining time in hh:mm:ss =      0 h 00 m 30 s
 Estimated total run time in seconds =    241.72762057142856
 Estimated total run time in hh:mm:ss =      0 h 04 m 01 s
 We have done    87.5000000     % of that
 The run will finish approximately on (in local time): Thu Jul 23, 2020 22:50

 Time step #         1600
 Time:    2.74974990      minutes
 Max norm displacement vector U in solid in all slices for forward prop. (m) =    12.9696026
 Max non-dimensional potential Ufluid in fluid in all slices for forward prop. =    1.35436139E-25
 Elapsed time in seconds =    241.97228799999999
 Elapsed time in hh:mm:ss =      0 h 04 m 01 s
 Mean elapsed time per time step in seconds =   0.15123268000000001
 Time steps done =         1600  out of         1600
 Time steps remaining =            0
 Estimated remaining time in seconds =    0.0000000000000000
 Estimated remaining time in hh:mm:ss =      0 h 00 m 00 s
 Estimated total run time in seconds =    241.97228799999999
 Estimated total run time in hh:mm:ss =      0 h 04 m 01 s
 We have done    100.000000     % of that


 Total number of time steps written:         1600

 Writing the seismograms in parallel took    4.1002999999989242E-002  seconds

 Time-Loop Complete. Timing info:
 Total elapsed time in seconds =    242.15905900000001
 Total elapsed time in hh:mm:ss =      0 h 04 m 02 s

 finalizing simulation

 End of the simulation

