
 ****************************
 *** Specfem3D MPI Mesher ***
 ****************************

 Version: 7.0.3


 Planet: Earth


 There are            6  MPI processes
 Processes are numbered from 0 to            5

 There are           32  elements along xi in each chunk
 There are           32  elements along eta in each chunk

 There are            1  slices along xi in each chunk
 There are            1  slices along eta in each chunk
 There is a total of            1  slices in each chunk
 There are            6  chunks in the global mesh
 There is a total of            6  slices in the global mesh

 NGLLX =            5
 NGLLY =            5
 NGLLZ =            5

 Shape functions defined by NGNOD =           27  control nodes
 Surface shape functions defined by NGNOD2D =            9  control nodes

 model: sgloberani_aniso
   no oceans
   no ellipticity
   no surface topography
   no self-gravitation
   no rotation
   no attenuation

   incorporating 3-D lateral variations in the mantle
   no heterogeneities in the mantle
   incorporating crustal variations
   using one layer only in crust
   incorporating transverse isotropy
   no inner-core anisotropy
   no general mantle anisotropy

 Reference radius of the globe used is    6371.0000000000000       km

 Central cube is at a radius of    950.00000000000000       km
 creating global slice addressing

 Spatial distribution of the slices
                        0

     2       1       4

                        5

                        3

 broadcast model: SGLOBE

 incorporating crustal model: sglobecrust

   Moho crustal thickness (without ice) min/max =    2.72000003       74.1699982      km
                total crustal thickness min/max =    4.76999998       74.1600037      km


 additional mesh optimizations

 moho:
   default  2-layer crust
   no element stretching for 3-D moho surface

 internal topography 410/660:
   no element stretching for 3-D internal surfaces


 Radial Meshing parameters:
   NCHUNKS                =            6

   CENTER LAT/LON:             0.00000000     /   0.00000000
   GAMMA_ROTATION_AZIMUTH:     0.00000000

   CHUNK WIDTH XI/ETA:         90.0000000     /   90.0000000
   NEX XI/ETA:                        32 /          32

   NER_CRUST:                          2
   NER_80_MOHO:                        1
   NER_220_80:                         2
   NER_400_220:                        2
   NER_600_400:                        2
   NER_670_600:                        1
   NER_771_670:                        1
   NER_TOPDDOUBLEPRIME_771:           15
   NER_CMB_TOPDDOUBLEPRIME:            1
   NER_OUTER_CORE:                    16
   NER_TOP_CENTRAL_CUBE_ICB:           2
   SUPPRESS_CRUSTAL_MESH:    F

   R_CENTRAL_CUBE =    950.000000      km

 Mesh resolution:
   DT =   0.11500000000000000
   Minimum period =    138.993652      (s)


 *******************************************
 creating mesh in region            1
 this region is the crust and mantle
 *******************************************


 first pass

   ...allocating arrays

   ...setting up layers

   ...creating mesh elements
   creating layer            1 out of           10
     number of regular elements  =            0
     number of doubling elements =         1792
   setting tiso flags in mantle model
     10.0%    current clock (NOT elapsed) time is: 22h 42min 37sec
   creating layer            2 out of           10
     number of regular elements  =          512
     20.0%    current clock (NOT elapsed) time is: 22h 42min 39sec
   creating layer            3 out of           10
     number of regular elements  =           64
     30.0%    current clock (NOT elapsed) time is: 22h 42min 39sec
   creating layer            4 out of           10
     number of regular elements  =          384
     number of doubling elements =          512
     40.0%    current clock (NOT elapsed) time is: 22h 42min 39sec
   creating layer            5 out of           10
     number of regular elements  =         1792
     50.0%    current clock (NOT elapsed) time is: 22h 42min 39sec
   creating layer            6 out of           10
     number of regular elements  =          256
     60.0%    current clock (NOT elapsed) time is: 22h 42min 39sec
   creating layer            7 out of           10
     number of regular elements  =          256
     70.0%    current clock (NOT elapsed) time is: 22h 42min 39sec
   creating layer            8 out of           10
     number of regular elements  =          512
     80.0%    current clock (NOT elapsed) time is: 22h 42min 39sec
   creating layer            9 out of           10
     number of regular elements  =          512
     90.0%    current clock (NOT elapsed) time is: 22h 42min 39sec
   creating layer           10 out of           10
     number of regular elements  =         2048
    100.0%    current clock (NOT elapsed) time is: 22h 42min 46sec


   ...creating global addressing

   ...creating MPI buffers

 second pass

   ...allocating arrays

   ...setting up layers

   ...creating mesh elements
   creating layer            1 out of           10
     number of regular elements  =            0
     number of doubling elements =         1792
     10.0%    current clock (NOT elapsed) time is: 22h 43min 26sec
   creating layer            2 out of           10
     number of regular elements  =          512
     20.0%    current clock (NOT elapsed) time is: 22h 43min 35sec
   creating layer            3 out of           10
     number of regular elements  =           64
     30.0%    current clock (NOT elapsed) time is: 22h 43min 36sec
   creating layer            4 out of           10
     number of regular elements  =          384
     number of doubling elements =          512
     40.0%    current clock (NOT elapsed) time is: 22h 43min 48sec
   creating layer            5 out of           10
     number of regular elements  =         1792
     50.0%    current clock (NOT elapsed) time is: 22h 44min 15sec
   creating layer            6 out of           10
     number of regular elements  =          256
     60.0%    current clock (NOT elapsed) time is: 22h 44min 19sec
   creating layer            7 out of           10
     number of regular elements  =          256
     70.0%    current clock (NOT elapsed) time is: 22h 44min 23sec
   creating layer            8 out of           10
     number of regular elements  =          512
     80.0%    current clock (NOT elapsed) time is: 22h 44min 30sec
   creating layer            9 out of           10
     number of regular elements  =          512
     90.0%    current clock (NOT elapsed) time is: 22h 44min 37sec
   creating layer           10 out of           10
     number of regular elements  =         2048
    100.0%    current clock (NOT elapsed) time is: 22h 45min 49sec


   ...fills global mesh points

   ...checking mesh resolution and time step

 ----------------------------------
   Verification of mesh parameters:
 ----------------------------------
   Region is crust/mantle

   Min Vs =    1.00875068      (km/s)
   Max Vp =    13.9312277      (km/s)

   Max element edge size =    890.984314      (km)
   Min element edge size =    14.9970064      (km)
   Max/min ratio =    59.4108124

   Max Jacobian eigenvalue ratio =   0.432912558
   Min Jacobian eigenvalue ratio =    3.16540636E-02

   Minimum period resolved =    26.9398994      (s)
   Minimum period resolved (empirical) =    138.993652      (s)
   Maximum suggested time step =   0.165000007      (s)

   for DT :   0.115000002      (s)
   Max stability for wave velocities =   0.376814485
 ----------------------------------


   ...precomputing Jacobian

   ...creating chunk buffers

 ----- creating chunk buffers -----

 There are            1  slices along xi in each chunk
 There are            1  slices along eta in each chunk
 There is a total of            1  slices in each chunk
 There are            6  chunks
 There is a total of            6  slices in all the chunks

 There is a total of           12  messages to assemble faces between chunks

 Generating message            1  for faces out of           12
 Generating message            2  for faces out of           12
 Generating message            3  for faces out of           12
 Generating message            4  for faces out of           12
 Generating message            5  for faces out of           12
 Generating message            6  for faces out of           12
 Generating message            7  for faces out of           12
 Generating message            8  for faces out of           12
 Generating message            9  for faces out of           12
 Generating message           10  for faces out of           12
 Generating message           11  for faces out of           12
 Generating message           12  for faces out of           12

 all the messages for chunk faces have the right size

 Generating message            1  for corners out of            8
 Generating message            2  for corners out of            8
 Generating message            3  for corners out of            8
 Generating message            4  for corners out of            8
 Generating message            5  for corners out of            8
 Generating message            6  for corners out of            8
 Generating message            7  for corners out of            8
 Generating message            8  for corners out of            8

   ...preparing MPI interfaces

 crust/mantle region:
   #max of points in MPI buffers along xi npoin2D_xi =         7229
   #max of array elements transferred npoin2D_xi*NDIM =        21687

   #max of points in MPI buffers along eta npoin2D_eta =         7229
   #max of array elements transferred npoin2D_eta*NDIM =        21687

 crust mantle MPI:
   maximum interfaces:           4
   MPI addressing maximum interfaces:           4
   MPI addressing : all interfaces okay

   total MPI interface points :       173496
   unique MPI interface points:       170880
   maximum valence            :            2
   total unique MPI interface points:      170880


   ...element inner/outer separation

 for overlapping of communications with calculations:

 percentage of edge elements in crust/mantle    20.6018524     %
 percentage of volume elements in crust/mantle    79.3981476     %


   ...element mesh coloring
   mesh coloring:  F

   ...creating mass matrix

   ...saving binary files

 calculated region volume:    3.50613618
                 top area:    12.5663700
             exact area:    12.566370614359172
              bottom area:    3.74931049
             exact area:    3.7493254667646689

 *******************************************
 creating mesh in region            2
 this region is the outer core
 *******************************************


 first pass

   ...allocating arrays

   ...setting up layers

   ...creating mesh elements
   creating layer            1 out of            2
     number of regular elements  =          112
     number of doubling elements =          128
     50.0%    current clock (NOT elapsed) time is: 22h 45min 51sec
   creating layer            2 out of            2
     number of regular elements  =          448
    100.0%    current clock (NOT elapsed) time is: 22h 45min 51sec


   ...creating global addressing

   ...creating MPI buffers

 second pass

   ...allocating arrays

   ...setting up layers

   ...creating mesh elements
   creating layer            1 out of            2
     number of regular elements  =          112
     number of doubling elements =          128
     50.0%    current clock (NOT elapsed) time is: 22h 45min 51sec
   creating layer            2 out of            2
     number of regular elements  =          448
    100.0%    current clock (NOT elapsed) time is: 22h 45min 51sec


   ...fills global mesh points

   ...checking mesh resolution and time step

 ----------------------------------
   Verification of mesh parameters:
 ----------------------------------
   Region is outer core

   Min Vp =    8.06479359      (km/s)
   Max Vp =    10.3560038      (km/s)

   Max element edge size =    910.461426      (km)
   Min element edge size =    70.5936432      (km)
   Max/min ratio =    12.8972158

   Max Jacobian eigenvalue ratio =   0.445398003
   Min Jacobian eigenvalue ratio =    5.24260774E-02

   Minimum period resolved =    21.8833141      (s)
   Minimum period resolved (empirical) =    138.993652      (s)
   Maximum suggested time step =   0.689999998      (s)

   for DT :   0.115000002      (s)
   Max stability for wave velocities =    9.11396891E-02
 ----------------------------------


   ...precomputing Jacobian

   ...creating chunk buffers

 ----- creating chunk buffers -----

 There are            1  slices along xi in each chunk
 There are            1  slices along eta in each chunk
 There is a total of            1  slices in each chunk
 There are            6  chunks
 There is a total of            6  slices in all the chunks

 There is a total of           12  messages to assemble faces between chunks

 Generating message            1  for faces out of           12
 Generating message            2  for faces out of           12
 Generating message            3  for faces out of           12
 Generating message            4  for faces out of           12
 Generating message            5  for faces out of           12
 Generating message            6  for faces out of           12
 Generating message            7  for faces out of           12
 Generating message            8  for faces out of           12
 Generating message            9  for faces out of           12
 Generating message           10  for faces out of           12
 Generating message           11  for faces out of           12
 Generating message           12  for faces out of           12

 all the messages for chunk faces have the right size

 Generating message            1  for corners out of            8
 Generating message            2  for corners out of            8
 Generating message            3  for corners out of            8
 Generating message            4  for corners out of            8
 Generating message            5  for corners out of            8
 Generating message            6  for corners out of            8
 Generating message            7  for corners out of            8
 Generating message            8  for corners out of            8

   ...preparing MPI interfaces

 outer core region:
   #max of points in MPI buffers along xi npoin2D_xi =         1689
   #max of array elements transferred npoin2D_xi*NDIM =         5067

   #max of points in MPI buffers along eta npoin2D_eta =         1689
   #max of array elements transferred npoin2D_eta*NDIM =         5067

 outer core MPI:
   maximum interfaces:           4
   MPI addressing maximum interfaces:           4
   MPI addressing : all interfaces okay

   total MPI interface points :        40536
   unique MPI interface points:        38976
   maximum valence            :            2
   total assembled MPI interface points:       38976


   ...element inner/outer separation
 percentage of edge elements in outer core    51.1627922     %
 percentage of volume elements in outer core    48.8372078     %


   ...element mesh coloring
   mesh coloring:  F

   ...creating mass matrix

   ...saving binary files

 calculated region volume:   0.653171301
                 top area:    3.74931049
             exact area:    3.7493254667646689
              bottom area:   0.461527795
             exact area:   0.46155768002682851

 *******************************************
 creating mesh in region            3
 this region is the inner core
 *******************************************


 first pass

   ...allocating arrays

   ...setting up layers

   ...creating mesh elements
   creating layer            1 out of            1
     number of regular elements  =           32
    100.0%    current clock (NOT elapsed) time is: 22h 45min 51sec

   creating central cube

   ...creating global addressing

   ...creating MPI buffers

 second pass

   ...allocating arrays

   ...setting up layers

   ...creating mesh elements
   creating layer            1 out of            1
     number of regular elements  =           32
    100.0%    current clock (NOT elapsed) time is: 22h 45min 51sec

   creating central cube

   ...fills global mesh points

   ...checking mesh resolution and time step

 ----------------------------------
   Verification of mesh parameters:
 ----------------------------------
   Region is inner core

   Min Vs =    3.50444508      (km/s)
   Max Vp =    11.2621994      (km/s)

   Max element edge size =    476.410583      (km)
   Min element edge size =    135.499985      (km)
   Max/min ratio =    3.51594567

   Max Jacobian eigenvalue ratio =    1.00000000
   Min Jacobian eigenvalue ratio =   0.245847702

   Minimum period resolved =    111.885826      (s)
   Minimum period resolved (empirical) =    138.993652      (s)
   Maximum suggested time step =    1.14999998      (s)

   for DT :   0.115000002      (s)
   Max stability for wave velocities =    5.46595156E-02
 ----------------------------------


   ...precomputing Jacobian

   ...creating chunk buffers

 ----- creating chunk buffers -----

 There are            1  slices along xi in each chunk
 There are            1  slices along eta in each chunk
 There is a total of            1  slices in each chunk
 There are            6  chunks
 There is a total of            6  slices in all the chunks

 There is a total of           12  messages to assemble faces between chunks

 Generating message            1  for faces out of           12
 Generating message            2  for faces out of           12
 Generating message            3  for faces out of           12
 Generating message            4  for faces out of           12
 Generating message            5  for faces out of           12
 Generating message            6  for faces out of           12
 Generating message            7  for faces out of           12
 Generating message            8  for faces out of           12
 Generating message            9  for faces out of           12
 Generating message           10  for faces out of           12
 Generating message           11  for faces out of           12
 Generating message           12  for faces out of           12

 all the messages for chunk faces have the right size

 Generating message            1  for corners out of            8
 Generating message            2  for corners out of            8
 Generating message            3  for corners out of            8
 Generating message            4  for corners out of            8
 Generating message            5  for corners out of            8
 Generating message            6  for corners out of            8
 Generating message            7  for corners out of            8
 Generating message            8  for corners out of            8

   ...preparing MPI interfaces

 inner core region:
   #max of points in MPI buffers along xi npoin2D_xi =          425
   #max of array elements transferred npoin2D_xi*NDIM =         1275

   #max of points in MPI buffers along eta npoin2D_eta =          425
   #max of array elements transferred npoin2D_eta*NDIM =         1275


 including central cube

 inner core MPI:
 inner core with central cube MPI:
   maximum interfaces:           5
   MPI addressing maximum interfaces:           5
   MPI addressing : all interfaces okay

   total MPI interface points :         6426
   unique MPI interface points:         5830
   maximum valence            :            3
   total assembled MPI interface points:        5830


   ...element inner/outer separation
 percentage of edge elements in inner core    54.1666679     %
 percentage of volume elements in inner core    45.8333321     %


   ...element mesh coloring
   mesh coloring:  F

   ...creating mass matrix

   ...saving binary files

 calculated region volume:    2.94825472E-02
                 top area:   0.461527795
             exact area:   0.46155768002682851
              bottom area:   0.211699098
             more or less similar area (central cube):   0.17787790385168645

 calculated volume:    4.1887900942481284
      exact volume:    4.1887902047863905

 computed total Earth mass for this density model and mesh:
       5.97828308E+24  kg
    (should be not too far from 5.974E+24 kg)

 average density for this density model and mesh:
       5519.05957      kg/m3
    (should be not too far from 5514 kg/m3)

 position of the center of mass of the globe for this density model and mesh:
    x =  -0.554775417      km
    y =  -0.221972063      km
    z =  -0.440814465      km
    distance to center =   0.742539406      km

 Repartition of elements in regions:
 ----------------------------------

 total number of elements in each slice:         9424

  - crust and mantle:    91.6808167      %
  - outer core:    7.30050945      %
  - inner core:    1.01867568      %

 for some mesh statistics, see comments in file OUTPUT_FILES/values_from_mesher.h

 Load balancing = 100 % by definition


 the time step of the solver will be DT =   0.115000002

 using single precision for the calculations

 smallest and largest possible floating-point numbers are:    1.17549435E-38   3.40282347E+38


 Elapsed time for mesh generation and buffer creation in seconds =    200.217270
 Elapsed time for mesh generation and buffer creation in hh:mm:ss =    0 h 03 m 20 s

 End of mesh generation

