
 ******************************
 **** Specfem3D MPI Solver ****
 ******************************

 Version: 7.0.0

 Fixing slow underflow trapping problem using small initial field

 There are  64  MPI processes
 Processes are numbered from 0 to  63

 There are  128  elements along xi in each chunk
 There are  128  elements along eta in each chunk

 There are  8  slices along xi in each chunk
 There are  8  slices along eta in each chunk
 There is a total of  64  slices in each chunk
 There are  1  chunks
 There is a total of  64  slices in all the chunks

 NDIM =  3

 NGLLX =  5
 NGLLY =  5
 NGLLZ =  5

 using single precision for the calculations

 smallest and largest possible floating-point numbers are:  1.175494351E-38,  3.402823466E+38

 model: s29ea
   incorporating the oceans using equivalent load
   incorporating ellipticity
   incorporating surface topography
   incorporating self-gravitation (Cowling approximation)
   incorporating rotation
   incorporating attenuation using  3  standard linear solids

   incorporating 3-D lateral variations
   no heterogeneities in the mantle
   incorporating crustal variations
   using one layer only in PREM crust
   incorporating transverse isotropy
   no inner-core anisotropy
   no general mantle anisotropy


 mesh databases:
   reading in crust/mantle databases...
   reading in outer core databases...
   reading in inner core databases...
   reading in coupling surface databases...
   reading in addressing...
   reading in MPI databases...
   for overlapping of communications with calculations:

   percentage of edge elements in crust/mantle  22.301136 %
   percentage of volume elements in crust/mantle  77.6988678 %

   percentage of edge elements in outer core  51.4285736 %
   percentage of volume elements in outer core  48.5714264 %

   percentage of edge elements in inner core  75.0000076 %
   percentage of volume elements in inner core  24.9999924 %

   reading in Stacey databases...

 Elapsed time for reading mesh in seconds =  1.31277299

 topography:
   topography/bathymetry: min/max =  -7747,  5507

 Elapsed time for reading topo/bathy in seconds =  0.426403999


 sources:

 *************************************
  locating source  1
 *************************************

 source located in slice  28
                in element  2592

    xi coordinate of source in that element:  -0.87130152958676044
   eta coordinate of source in that element:  0.84908222254787236
 gamma coordinate of source in that element:  -0.47409378677959113

  half duration:  4.7999999999999998  seconds
     time shift:  0.  seconds

 magnitude of the source:
      scalar moment M0 =  8.09810516505253211E+25  dyne-cm
   moment magnitude Mw =  6.5722557989889978


 original (requested) position of the source:

       latitude:  29.100000000000001
      longitude:  58.240000000000002
          depth:  12.8361  km

 position of the source that will be used:

       latitude:  29.100000000000009
      longitude:  58.239999999999988
          depth:  12.836099999999105  km

 Error in location of the source:  5.001529789E-13  km

 maximum error in location of the sources:  5.001529789E-13  km


 Elapsed time for detection of sources in seconds =  4.28700447082519531E-3

 End of source detection - done


 receivers:

 Total number of receivers =  11


 ********************
  locating receivers
 ********************

 reading receiver information...

 Stations sorted by epicentral distance:
 Station #     7:                  II.UOSS    epicentral distance:      4.519025 degrees
 Station #     2:                  II.ABKT    epicentral distance:      8.807908 degrees
 Station #     6:                  II.RAYN    epicentral distance:     12.699137 degrees
 Station #     5:                   II.NIL    epicentral distance:     13.615158 degrees
 Station #     3:                   II.GAR    epicentral distance:     14.048270 degrees
 Station #    11:                   IU.GNI    epicentral distance:     15.629728 degrees
 Station #     1:                   II.AAK    epicentral distance:     18.823755 degrees
 Station #     4:                   II.KIV    epicentral distance:     19.341021 degrees
 Station #     9:                  IU.ANTO    epicentral distance:     23.489428 degrees
 Station #     8:                   IU.AAE    epicentral distance:     27.072439 degrees
 Station #    10:                  IU.FURI    epicentral distance:     27.228979 degrees

 maximum error in location of all the receivers:  2.236752016E-12  km

 Elapsed time for receiver detection in seconds =  0.15698003768920898

 End of receiver detection - done


 found a total of  11  receivers in all slices
 this total is okay

 source arrays:
   number of sources is  1
   size of source array                 =  1.430511475E-3 MB
                                        =  1.396983862E-6 GB

 seismograms:
   seismograms written by all processes
   writing out seismograms at every NTSTEP_BETWEEN_OUTPUT_SEISMOS =  7200
   maximum number of local receivers is  2  in slice  1
   size of maximum seismogram array       =  0.164794922 MB
                                          =  1.609325409E-4 GB


 Total number of samples for seismograms =  7200


 Reference radius of the Earth used is  6371.  km


 incorporating the oceans using equivalent load

 incorporating ellipticity

 incorporating surface topography

 incorporating self-gravitation (Cowling approximation)

 incorporating rotation

 incorporating attenuation using  3  standard linear solids
 mimicking effects on velocity only



 preparing mass matrices
 preparing constants
 preparing gravity arrays
 preparing attenuation
 preparing wavefields
 preparing absorbing boundaries

 Elapsed time for preparing timerun in seconds =  0.19293499


 time loop:

               scheme:         Newmark
            time step:  0.126843646  s
 number of time steps:  7200
 total simulated time:  15.099123  minutes
 start time          : -7.19999981  seconds

 All processes are synchronized before time loop

 Starting time iteration loop...

 Time step #  5
 Time:  -0.11154376  minutes
 Max norm displacement vector U in solid in all slices for forward prop. (m) =  8.837390487E-5
 Max non-dimensional potential Ufluid in fluid in all slices for forward prop. =  1.000374137E-24
 Max of strain, eps_trace_over_3_crust_mantle = 3.505145891E-27
 Max of strain, epsilondev_crust_mantle  = 3.342210064E-8
 Elapsed time in seconds =  0.20163798332214355
 Elapsed time in hh:mm:ss =      0 h 00 m 00 s
 Mean elapsed time per time step in seconds =  4.03275966644287137E-2
 Time steps done =  5  out of  7200
 Time steps remaining =  7195
 Estimated remaining time in seconds =  290.15705800056458
 Estimated remaining time in hh:mm:ss =      0 h 04 m 50 s
 Estimated total run time in seconds =  290.35869598388672
 Estimated total run time in hh:mm:ss =      0 h 04 m 50 s
 We have done  6.944444776E-2 % of that
 The run will finish approximately on (in local time): Wed Jul 15, 2015 09:06
 ************************************************************
 **** BEWARE: the above time estimates are not reliable
 **** because fewer than 100 iterations have been performed
 ************************************************************

 Time step #  1000
 Time:  1.99194658  minutes
 Max norm displacement vector U in solid in all slices for forward prop. (m) =  0.84856379
 Max non-dimensional potential Ufluid in fluid in all slices for forward prop. =  1.142031665E-24
 Max of strain, eps_trace_over_3_crust_mantle = 3.389435843E-9
 Max of strain, epsilondev_crust_mantle  = 2.697353193E-4
 Elapsed time in seconds =  53.018218040466309
 Elapsed time in hh:mm:ss =      0 h 00 m 53 s
 Mean elapsed time per time step in seconds =  5.30182180404663098E-2
 Time steps done =  1000  out of  7200
 Time steps remaining =  6200
 Estimated remaining time in seconds =  328.7129518508911
 Estimated remaining time in hh:mm:ss =      0 h 05 m 28 s
 Estimated total run time in seconds =  381.73116989135741
 Estimated total run time in hh:mm:ss =      0 h 06 m 21 s
 We have done  13.8888893 % of that
 The run will finish approximately on (in local time): Wed Jul 15, 2015 09:07

 Time step #  2000
 Time:  4.1060071  minutes
 Max norm displacement vector U in solid in all slices for forward prop. (m) =  0.848455727
 Max non-dimensional potential Ufluid in fluid in all slices for forward prop. =  5.441155605E-18
 Max of strain, eps_trace_over_3_crust_mantle = 2.280046596E-9
 Max of strain, epsilondev_crust_mantle  = 2.697547898E-4
 Elapsed time in seconds =  106.79428601264954
 Elapsed time in hh:mm:ss =      0 h 01 m 46 s
 Mean elapsed time per time step in seconds =  5.33971430063247682E-2
 Time steps done =  2000  out of  7200
 Time steps remaining =  5200
 Estimated remaining time in seconds =  277.66514363288877
 Estimated remaining time in hh:mm:ss =      0 h 04 m 37 s
 Estimated total run time in seconds =  384.45942964553831
 Estimated total run time in hh:mm:ss =      0 h 06 m 24 s
 We have done  27.7777786 % of that
 The run will finish approximately on (in local time): Wed Jul 15, 2015 09:07

 Time step #  3000
 Time:  6.22006798  minutes
 Max norm displacement vector U in solid in all slices for forward prop. (m) =  0.848579586
 Max non-dimensional potential Ufluid in fluid in all slices for forward prop. =  7.445207001E-15
 Max of strain, eps_trace_over_3_crust_mantle = 2.382130049E-9
 Max of strain, epsilondev_crust_mantle  = 2.69704411E-4
 Elapsed time in seconds =  160.3935010433197
 Elapsed time in hh:mm:ss =      0 h 02 m 40 s
 Mean elapsed time per time step in seconds =  5.3464500347773232E-2
 Time steps done =  3000  out of  7200
 Time steps remaining =  4200
 Estimated remaining time in seconds =  224.55090146064757
 Estimated remaining time in hh:mm:ss =      0 h 03 m 44 s
 Estimated total run time in seconds =  384.94440250396724
 Estimated total run time in hh:mm:ss =      0 h 06 m 24 s
 We have done  41.6666679 % of that
 The run will finish approximately on (in local time): Wed Jul 15, 2015 09:07

 Time step #  4000
 Time:  8.33412838  minutes
 Max norm displacement vector U in solid in all slices for forward prop. (m) =  0.84856075
 Max non-dimensional potential Ufluid in fluid in all slices for forward prop. =  3.990526375E-14
 Max of strain, eps_trace_over_3_crust_mantle = 1.662098792E-9
 Max of strain, epsilondev_crust_mantle  = 2.696907322E-4
 Elapsed time in seconds =  214.6921660900116
 Elapsed time in hh:mm:ss =      0 h 03 m 34 s
 Mean elapsed time per time step in seconds =  5.36730415225028998E-2
 Time steps done =  4000  out of  7200
 Time steps remaining =  3200
 Estimated remaining time in seconds =  171.75373287200927
 Estimated remaining time in hh:mm:ss =      0 h 02 m 51 s
 Estimated total run time in seconds =  386.44589896202086
 Estimated total run time in hh:mm:ss =      0 h 06 m 26 s
 We have done  55.5555573 % of that
 The run will finish approximately on (in local time): Wed Jul 15, 2015 09:07

 Time step #  5000
 Time:  10.4481888  minutes
 Max norm displacement vector U in solid in all slices for forward prop. (m) =  0.848502576
 Max non-dimensional potential Ufluid in fluid in all slices for forward prop. =  3.097837674E-14
 Max of strain, eps_trace_over_3_crust_mantle = 1.642311842E-9
 Max of strain, epsilondev_crust_mantle  = 2.696733864E-4
 Elapsed time in seconds =  268.28075909614563
 Elapsed time in hh:mm:ss =      0 h 04 m 28 s
 Mean elapsed time per time step in seconds =  5.36561518192291281E-2
 Time steps done =  5000  out of  7200
 Time steps remaining =  2200
 Estimated remaining time in seconds =  118.04353400230409
 Estimated remaining time in hh:mm:ss =      0 h 01 m 58 s
 Estimated total run time in seconds =  386.32429309844974
 Estimated total run time in hh:mm:ss =      0 h 06 m 26 s
 We have done  69.4444427 % of that
 The run will finish approximately on (in local time): Wed Jul 15, 2015 09:07

 Time step #  6000
 Time:  12.5622501  minutes
 Max norm displacement vector U in solid in all slices for forward prop. (m) =  0.848489463
 Max non-dimensional potential Ufluid in fluid in all slices for forward prop. =  3.650562586E-14
 Max of strain, eps_trace_over_3_crust_mantle = 1.96172012E-9
 Max of strain, epsilondev_crust_mantle  = 2.696883166E-4
 Elapsed time in seconds =  321.52314400672913
 Elapsed time in hh:mm:ss =      0 h 05 m 21 s
 Mean elapsed time per time step in seconds =  5.35871906677881857E-2
 Time steps done =  6000  out of  7200
 Time steps remaining =  1200
 Estimated remaining time in seconds =  64.304628801345828
 Estimated remaining time in hh:mm:ss =      0 h 01 m 04 s
 Estimated total run time in seconds =  385.82777280807494
 Estimated total run time in hh:mm:ss =      0 h 06 m 25 s
 We have done  83.3333359 % of that
 The run will finish approximately on (in local time): Wed Jul 15, 2015 09:07

 Time step #  7000
 Time:  14.6763105  minutes
 Max norm displacement vector U in solid in all slices for forward prop. (m) =  0.848451197
 Max non-dimensional potential Ufluid in fluid in all slices for forward prop. =  4.37570817E-14
 Max of strain, eps_trace_over_3_crust_mantle = 1.692279539E-9
 Max of strain, epsilondev_crust_mantle  = 2.696923912E-4
 Elapsed time in seconds =  374.91718411445618
 Elapsed time in hh:mm:ss =      0 h 06 m 14 s
 Mean elapsed time per time step in seconds =  5.35595977306366003E-2
 Time steps done =  7000  out of  7200
 Time steps remaining =  200
 Estimated remaining time in seconds =  10.711919546127319
 Estimated remaining time in hh:mm:ss =      0 h 00 m 10 s
 Estimated total run time in seconds =  385.6291036605835
 Estimated total run time in hh:mm:ss =      0 h 06 m 25 s
 We have done  97.2222214 % of that
 The run will finish approximately on (in local time): Wed Jul 15, 2015 09:07

 Time step #  7200
 Time:  15.099123  minutes
 Max norm displacement vector U in solid in all slices for forward prop. (m) =  0.848392427
 Max non-dimensional potential Ufluid in fluid in all slices for forward prop. =  4.492596345E-14
 Max of strain, eps_trace_over_3_crust_mantle = 1.847904385E-9
 Max of strain, epsilondev_crust_mantle  = 2.697028103E-4
 Elapsed time in seconds =  385.5701789855957
 Elapsed time in hh:mm:ss =      0 h 06 m 25 s
 Mean elapsed time per time step in seconds =  5.35514137479994046E-2
 Time steps done =  7200  out of  7200
 Time steps remaining =  0
 Estimated remaining time in seconds =  0.
 Estimated remaining time in hh:mm:ss =      0 h 00 m 00 s
 Estimated total run time in seconds =  385.5701789855957
 Estimated total run time in hh:mm:ss =      0 h 06 m 25 s
 We have done  100. % of that


 Total number of time steps written:  7200

 Writing the seismograms in parallel took  0.51245689392089844  seconds

 Time-Loop Complete. Timing info:
 Total elapsed time in seconds =  386.13620591163635
 Total elapsed time in hh:mm:ss =      0 h 06 m 26 s

 End of the simulation

