 
 ******************************
 **** Specfem3D MPI Solver ****
 ******************************
 
 
 Fixing slow underflow trapping problem using small initial field
 
 There are  64  MPI processes
 Processes are numbered from 0 to  63
 
 There are  128  elements along xi in each chunk
 There are  128  elements along eta in each chunk
 
 There are  8  slices along xi in each chunk
 There are  8  slices along eta in each chunk
 There is a total of  64  slices in each chunk
 There are  1  chunks
 There is a total of  64  slices in all the chunks
 
 NDIM =  3
 
 NGLLX =  5
 NGLLY =  5
 NGLLZ =  5
 
 using single precision for the calculations
 
 smallest and largest possible floating-point numbers are:  1.175494351E-38,  3.402823466E+38
 
 model: s29ea
   incorporating the oceans using equivalent load
   incorporating ellipticity
   incorporating surface topography
   incorporating self-gravitation (Cowling approximation)
   incorporating rotation
   incorporating attenuation using  3  standard linear solids
 
   incorporating 3-D lateral variations
   no heterogeneities in the mantle
   incorporating crustal variations
   using one layer only in PREM crust
   incorporating transverse isotropy
   no inner-core anisotropy
   no general mantle anisotropy
 
 
 mesh databases:
   reading in crust/mantle databases...
   reading in outer core databases...
   reading in inner core databases...
   reading in coupling surface databases...
   reading in addressing...
   reading in MPI databases...
   for overlapping of communications with calculations:
 
   percentage of edge elements in crust/mantle  22.301136 %
   percentage of volume elements in crust/mantle  77.6988678 %
 
   percentage of edge elements in outer core  51.4285736 %
   percentage of volume elements in outer core  48.5714264 %
 
   percentage of edge elements in inner core  75.0000076 %
   percentage of volume elements in inner core  24.9999924 %
 
   reading in Stacey databases...
 
 Elapsed time for reading mesh in seconds =  0.815738916
 
 topography:
   topography/bathymetry: min/max =  -7747,  5507
 
 Elapsed time for reading topo/bathy in seconds =  0.277942896
 
 
 sources:
 
 *************************************
  locating source  1
 *************************************
 
 source located in slice  28
                in element  2592
 
    xi coordinate of source in that element:  -0.87130152958676044
   eta coordinate of source in that element:  0.84908222254787236
 gamma coordinate of source in that element:  -0.47409378677959113
 
  half duration:  4.7999999999999998  seconds
     time shift:  0.  seconds
 
 magnitude of the source:
      scalar moment M0 =  8.09810516505253211E+25  dyne-cm
   moment magnitude Mw =  6.5722557989889978
 
 
 original (requested) position of the source:
 
       latitude:  29.100000000000001
      longitude:  58.240000000000002
          depth:  12.8361  km
 
 position of the source that will be used:
 
       latitude:  29.100000000000009
      longitude:  58.239999999999988
          depth:  12.836099999999105  km
 
 Error in location of the source:  5.001529789E-13  km
 
 maximum error in location of the sources:  5.001529789E-13  km
 
 
 Elapsed time for detection of sources in seconds =  5.18703460693359375E-3
 
 End of source detection - done
 
 
 receivers:
 
 Total number of receivers =  11
 
 
 ********************
  locating receivers
 ********************
 
 reading receiver information...
 
 Stations sorted by epicentral distance:
 Station #     7:                  II.UOSS    epicentral distance:      4.519025 degrees
 Station #     2:                  II.ABKT    epicentral distance:      8.807908 degrees
 Station #     6:                  II.RAYN    epicentral distance:     12.699137 degrees
 Station #     5:                   II.NIL    epicentral distance:     13.615158 degrees
 Station #     3:                   II.GAR    epicentral distance:     14.048270 degrees
 Station #    11:                   IU.GNI    epicentral distance:     15.629728 degrees
 Station #     1:                   II.AAK    epicentral distance:     18.823755 degrees
 Station #     4:                   II.KIV    epicentral distance:     19.341021 degrees
 Station #     9:                  IU.ANTO    epicentral distance:     23.489428 degrees
 Station #     8:                   IU.AAE    epicentral distance:     27.072439 degrees
 Station #    10:                  IU.FURI    epicentral distance:     27.228979 degrees
 
 maximum error in location of all the receivers:  2.236752016E-12  km
 
 Elapsed time for receiver detection in seconds =  3.05187702178955078E-2
 
 End of receiver detection - done
 
 
 found a total of  11  receivers in all slices
 this total is okay
 
 source arrays:
   number of sources is  1
   size of source array                 =  1.430511475E-3 MB
                                        =  1.396983862E-6 GB
 
 seismograms:
   writing out seismograms at every NTSTEP_BETWEEN_OUTPUT_SEISMOS =  7200
   maximum number of local receivers is  2  in slice  1
   size of maximum seismogram array       =  0.164794922 MB
                                          =  1.609325409E-4 GB
 
 
 Total number of samples for seismograms =  7200
 
 
 Reference radius of the Earth used is  6371.  km
 
 
 incorporating the oceans using equivalent load
 
 incorporating ellipticity
 
 incorporating surface topography
 
 incorporating self-gravitation (Cowling approximation)
 
 incorporating rotation
 
 incorporating attenuation using  3  standard linear solids
 mimicking effects on velocity only
 
 
 
 preparing mass matrices
 preparing constants
 preparing gravity arrays
 preparing attenuation
 preparing wavefields
 preparing absorbing boundaries
 
 Elapsed time for preparing timerun in seconds =  0.17032814
 
 
 time loop:
 
               scheme:         Newmark
            time step:  0.127032652  s
 number of time steps:  7200
 total simulated time:  15.1218004  minutes
 start time          : -7.19999981  seconds
 
 All processes are synchronized before time loop
 
 Starting time iteration loop...
 
 Time step #  5
 Time:  -0.111531153  minutes
 Max norm displacement vector U in solid in all slices for forward prop. (m) =  8.863572293E-5
 Max non-dimensional potential Ufluid in fluid in all slices for forward prop. =  1.000375123E-24
 Max of strain, eps_trace_over_3_crust_mantle = 3.457483362E-27
 Max of strain, epsilondev_crust_mantle  = 3.35217365E-8
 Elapsed time in seconds =  0.20554590225219727
 Elapsed time in hh:mm:ss =      0 h 00 m 00 s
 Mean elapsed time per time step in seconds =  4.11091804504394587E-2
 Time steps done =  5  out of  7200
 Time steps remaining =  7195
 Estimated remaining time in seconds =  295.78055334091187
 Estimated remaining time in hh:mm:ss =      0 h 04 m 55 s
 Estimated total run time in seconds =  295.98609924316406
 Estimated total run time in hh:mm:ss =      0 h 04 m 55 s
 We have done  6.944444776E-2 % of that
 The run will finish approximately on (in local time): Fri Mar 13, 2015 14:04
 ************************************************************
 **** BEWARE: the above time estimates are not reliable
 **** because fewer than 100 iterations have been performed
 ************************************************************
 
 Time step #  1000
 Time:  1.99509358  minutes
 Max norm displacement vector U in solid in all slices for forward prop. (m) =  0.848547757
 Max non-dimensional potential Ufluid in fluid in all slices for forward prop. =  1.142396414E-24
 Max of strain, eps_trace_over_3_crust_mantle = 3.270196114E-9
 Max of strain, epsilondev_crust_mantle  = 2.6974309E-4
 Elapsed time in seconds =  51.873548984527588
 Elapsed time in hh:mm:ss =      0 h 00 m 51 s
 Mean elapsed time per time step in seconds =  5.18735489845275899E-2
 Time steps done =  1000  out of  7200
 Time steps remaining =  6200
 Estimated remaining time in seconds =  321.61600370407103
 Estimated remaining time in hh:mm:ss =      0 h 05 m 21 s
 Estimated total run time in seconds =  373.48955268859862
 Estimated total run time in hh:mm:ss =      0 h 06 m 13 s
 We have done  13.8888893 % of that
 The run will finish approximately on (in local time): Fri Mar 13, 2015 14:05
 
 Time step #  2000
 Time:  4.11230421  minutes
 Max norm displacement vector U in solid in all slices for forward prop. (m) =  0.848437488
 Max non-dimensional potential Ufluid in fluid in all slices for forward prop. =  5.505774955E-18
 Max of strain, eps_trace_over_3_crust_mantle = 2.129139753E-9
 Max of strain, epsilondev_crust_mantle  = 2.697601449E-4
 Elapsed time in seconds =  103.78269481658936
 Elapsed time in hh:mm:ss =      0 h 01 m 43 s
 Mean elapsed time per time step in seconds =  5.18913474082946802E-2
 Time steps done =  2000  out of  7200
 Time steps remaining =  5200
 Estimated remaining time in seconds =  269.83500652313234
 Estimated remaining time in hh:mm:ss =      0 h 04 m 29 s
 Estimated total run time in seconds =  373.61770133972169
 Estimated total run time in hh:mm:ss =      0 h 06 m 13 s
 We have done  27.7777786 % of that
 The run will finish approximately on (in local time): Fri Mar 13, 2015 14:04
 
 Time step #  3000
 Time:  6.22951508  minutes
 Max norm displacement vector U in solid in all slices for forward prop. (m) =  0.848582923
 Max non-dimensional potential Ufluid in fluid in all slices for forward prop. =  7.500213321E-15
 Max of strain, eps_trace_over_3_crust_mantle = 2.811957556E-9
 Max of strain, epsilondev_crust_mantle  = 2.696962329E-4
 Elapsed time in seconds =  155.6953489780426
 Elapsed time in hh:mm:ss =      0 h 02 m 35 s
 Mean elapsed time per time step in seconds =  5.18984496593475342E-2
 Time steps done =  3000  out of  7200
 Time steps remaining =  4200
 Estimated remaining time in seconds =  217.97348856925964
 Estimated remaining time in hh:mm:ss =      0 h 03 m 37 s
 Estimated total run time in seconds =  373.66883754730225
 Estimated total run time in hh:mm:ss =      0 h 06 m 13 s
 We have done  41.6666679 % of that
 The run will finish approximately on (in local time): Fri Mar 13, 2015 14:05
 
 Time step #  4000
 Time:  8.34672546  minutes
 Max norm displacement vector U in solid in all slices for forward prop. (m) =  0.848617792
 Max non-dimensional potential Ufluid in fluid in all slices for forward prop. =  4.0256674E-14
 Max of strain, eps_trace_over_3_crust_mantle = 1.621445644E-9
 Max of strain, epsilondev_crust_mantle  = 2.69704964E-4
 Elapsed time in seconds =  207.64957499504089
 Elapsed time in hh:mm:ss =      0 h 03 m 27 s
 Mean elapsed time per time step in seconds =  5.19123937487602216E-2
 Time steps done =  4000  out of  7200
 Time steps remaining =  3200
 Estimated remaining time in seconds =  166.11965999603271
 Estimated remaining time in hh:mm:ss =      0 h 02 m 46 s
 Estimated total run time in seconds =  373.76923499107363
 Estimated total run time in hh:mm:ss =      0 h 06 m 13 s
 We have done  55.5555573 % of that
 The run will finish approximately on (in local time): Fri Mar 13, 2015 14:05
 
 Time step #  5000
 Time:  10.4639368  minutes
 Max norm displacement vector U in solid in all slices for forward prop. (m) =  0.848594308
 Max non-dimensional potential Ufluid in fluid in all slices for forward prop. =  3.08218315E-14
 Max of strain, eps_trace_over_3_crust_mantle = 1.585921949E-9
 Max of strain, epsilondev_crust_mantle  = 2.697166055E-4
 Elapsed time in seconds =  259.55988693237305
 Elapsed time in hh:mm:ss =      0 h 04 m 19 s
 Mean elapsed time per time step in seconds =  5.19119773864746142E-2
 Time steps done =  5000  out of  7200
 Time steps remaining =  2200
 Estimated remaining time in seconds =  114.20635025024414
 Estimated remaining time in hh:mm:ss =      0 h 01 m 54 s
 Estimated total run time in seconds =  373.7662371826172
 Estimated total run time in hh:mm:ss =      0 h 06 m 13 s
 We have done  69.4444427 % of that
 The run will finish approximately on (in local time): Fri Mar 13, 2015 14:05
 
 Time step #  6000
 Time:  12.5811472  minutes
 Max norm displacement vector U in solid in all slices for forward prop. (m) =  0.848546445
 Max non-dimensional potential Ufluid in fluid in all slices for forward prop. =  3.652055736E-14
 Max of strain, eps_trace_over_3_crust_mantle = 1.966019347E-9
 Max of strain, epsilondev_crust_mantle  = 2.69738026E-4
 Elapsed time in seconds =  311.4252028465271
 Elapsed time in hh:mm:ss =      0 h 05 m 11 s
 Mean elapsed time per time step in seconds =  5.19042004744211805E-2
 Time steps done =  6000  out of  7200
 Time steps remaining =  1200
 Estimated remaining time in seconds =  62.285040569305416
 Estimated remaining time in hh:mm:ss =      0 h 01 m 02 s
 Estimated total run time in seconds =  373.71024341583251
 Estimated total run time in hh:mm:ss =      0 h 06 m 13 s
 We have done  83.3333359 % of that
 The run will finish approximately on (in local time): Fri Mar 13, 2015 14:05
 
 Time step #  7000
 Time:  14.6983576  minutes
 Max norm displacement vector U in solid in all slices for forward prop. (m) =  0.848546326
 Max non-dimensional potential Ufluid in fluid in all slices for forward prop. =  4.382135456E-14
 Max of strain, eps_trace_over_3_crust_mantle = 2.074675542E-9
 Max of strain, epsilondev_crust_mantle  = 2.697348245E-4
 Elapsed time in seconds =  363.32678890228271
 Elapsed time in hh:mm:ss =      0 h 06 m 03 s
 Mean elapsed time per time step in seconds =  5.19038269860403884E-2
 Time steps done =  7000  out of  7200
 Time steps remaining =  200
 Estimated remaining time in seconds =  10.380765397208078
 Estimated remaining time in hh:mm:ss =      0 h 00 m 10 s
 Estimated total run time in seconds =  373.70755429949077
 Estimated total run time in hh:mm:ss =      0 h 06 m 13 s
 We have done  97.2222214 % of that
 The run will finish approximately on (in local time): Fri Mar 13, 2015 14:05
 
 Time step #  7200
 Time:  15.1218004  minutes
 Max norm displacement vector U in solid in all slices for forward prop. (m) =  0.848443866
 Max non-dimensional potential Ufluid in fluid in all slices for forward prop. =  4.498587578E-14
 Max of strain, eps_trace_over_3_crust_mantle = 2.056065984E-9
 Max of strain, epsilondev_crust_mantle  = 2.697134623E-4
 Elapsed time in seconds =  373.88469886779785
 Elapsed time in hh:mm:ss =      0 h 06 m 13 s
 Mean elapsed time per time step in seconds =  5.19284303983052545E-2
 Time steps done =  7200  out of  7200
 Time steps remaining =  0
 Estimated remaining time in seconds =  0.
 Estimated remaining time in hh:mm:ss =      0 h 00 m 00 s
 Estimated total run time in seconds =  373.88469886779785
 Estimated total run time in hh:mm:ss =      0 h 06 m 13 s
 We have done  100. % of that
 
 
 Writing the seismograms in parallel took  7.93521404266357422E-2  seconds
 
 
  Total number of time steps written:  7200
 
 Time-Loop Complete. Timing info:
 Total elapsed time in seconds =  374.01975393295288
 Total elapsed time in hh:mm:ss =      0 h 06 m 14 s
 
 End of the simulation
 
