
 ****************************
 *** Specfem3D MPI Mesher ***
 ****************************

 Version: 8.1.1


 Planet: Earth


 There are            4  MPI processes
 Processes are numbered from 0 to            3

 There are           32  elements along xi in each chunk
 There are           32  elements along eta in each chunk

 There are            2  slices along xi in each chunk
 There are            2  slices along eta in each chunk
 There is a total of            4  slices in each chunk
 There are            1  chunks in the global mesh
 There is a total of            4  slices in the global mesh

 NGLLX =            5
 NGLLY =            5
 NGLLZ =            5

 Shape functions defined by NGNOD =           27  control nodes
 Surface shape functions defined by NGNOD2D =            9  control nodes

 model: 1D_transversely_isotropic_prem
   no oceans
   no ellipticity
   no surface topography
   no self-gravitation
   no rotation
   no attenuation

   no 3-D lateral variations in the mantle
   no heterogeneities in the mantle
   no crustal variations
   using unmodified 1D crustal model with two layers
   incorporating transverse isotropy
   no inner-core anisotropy
   no general mantle anisotropy

 Reference radius of the globe used is    6371.0000000000000       km

 Central cube is at a radius of    952.00000000000000       km
 creating global slice addressing


 additional mesh optimizations

 moho:
   no element stretching for 3-D moho surface

 internal topography 410/660:
   no element stretching for 3-D internal surfaces


 Radial Meshing parameters:
   NCHUNKS                =            1

   CENTER LAT/LON:             40.0000000     /   25.0000000
   GAMMA_ROTATION_AZIMUTH:     0.00000000

   CHUNK WIDTH XI/ETA:         20.0000000     /   20.0000000
   NEX XI/ETA:                        32 /          32

   NER_CRUST:                          2
   NER_80_MOHO:                        1
   NER_220_80:                         2
   NER_400_220:                        2
   NER_600_400:                        2
   NER_670_600:                        1
   NER_771_670:                        1
   NER_TOPDDOUBLEPRIME_771:           17
   NER_CMB_TOPDDOUBLEPRIME:            1
   NER_OUTER_CORE:                    16
   NER_TOP_CENTRAL_CUBE_ICB:           2
   SUPPRESS_CRUSTAL_MESH:    F

   R_CENTRAL_CUBE =    952.000000      km

 Mesh resolution:
   DT =   0.28499999999999998
   Minimum period =    30.8874798      (s)



 *******************************************
 creating mesh in region            1
 this region is the crust and mantle
 *******************************************


 first pass

   ...allocating arrays

   ...setting up layers

   ...creating mesh elements
   creating layer            1 out of           11
     number of regular elements  =            0
     number of doubling elements =          448
   setting tiso flags in mantle model
      9.1%    current clock (NOT elapsed) time is: 18h 51min 15sec
   creating layer            2 out of           11
     number of regular elements  =          128
     18.2%    current clock (NOT elapsed) time is: 18h 51min 15sec
   creating layer            3 out of           11
     number of regular elements  =           16
     27.3%    current clock (NOT elapsed) time is: 18h 51min 15sec
   creating layer            4 out of           11
     number of regular elements  =          112
     number of doubling elements =          128
     36.4%    current clock (NOT elapsed) time is: 18h 51min 15sec
   creating layer            5 out of           11
     number of regular elements  =          512
     45.5%    current clock (NOT elapsed) time is: 18h 51min 15sec
   creating layer            6 out of           11
     number of regular elements  =           64
     54.5%    current clock (NOT elapsed) time is: 18h 51min 15sec
   creating layer            7 out of           11
     number of regular elements  =           64
     63.6%    current clock (NOT elapsed) time is: 18h 51min 15sec
   creating layer            8 out of           11
     number of regular elements  =          128
     72.7%    current clock (NOT elapsed) time is: 18h 51min 15sec
   creating layer            9 out of           11
     number of regular elements  =          128
     81.8%    current clock (NOT elapsed) time is: 18h 51min 15sec
   creating layer           10 out of           11
     number of regular elements  =          256
     90.9%    current clock (NOT elapsed) time is: 18h 51min 15sec
   creating layer           11 out of           11
     number of regular elements  =          256
    100.0%    current clock (NOT elapsed) time is: 18h 51min 15sec
   layers done

   number of elements (per slice)        =         2240
   total number of elements (all slices) =         8960


   ...creating global addressing
     total number of points            :       280000
     array memory required per process :    6.4086914062500000      MB
     getting global points             : npointot =       280000  nspec =         2240
     creating indirect addressing
     ibool ok

   ...creating MPI buffers

 second pass

   ...allocating arrays

   ...setting up layers

   ...creating mesh elements
   creating layer            1 out of           11
     number of regular elements  =            0
     number of doubling elements =          448
      9.1%    current clock (NOT elapsed) time is: 18h 51min 15sec
   creating layer            2 out of           11
     number of regular elements  =          128
     18.2%    current clock (NOT elapsed) time is: 18h 51min 15sec
   creating layer            3 out of           11
     number of regular elements  =           16
     27.3%    current clock (NOT elapsed) time is: 18h 51min 15sec
   creating layer            4 out of           11
     number of regular elements  =          112
     number of doubling elements =          128
     36.4%    current clock (NOT elapsed) time is: 18h 51min 15sec
   creating layer            5 out of           11
     number of regular elements  =          512
     45.5%    current clock (NOT elapsed) time is: 18h 51min 15sec
   creating layer            6 out of           11
     number of regular elements  =           64
     54.5%    current clock (NOT elapsed) time is: 18h 51min 15sec
   creating layer            7 out of           11
     number of regular elements  =           64
     63.6%    current clock (NOT elapsed) time is: 18h 51min 15sec
   creating layer            8 out of           11
     number of regular elements  =          128
     72.7%    current clock (NOT elapsed) time is: 18h 51min 15sec
   creating layer            9 out of           11
     number of regular elements  =          128
     81.8%    current clock (NOT elapsed) time is: 18h 51min 15sec
   creating layer           10 out of           11
     number of regular elements  =          256
     90.9%    current clock (NOT elapsed) time is: 18h 51min 15sec
   creating layer           11 out of           11
     number of regular elements  =          256
    100.0%    current clock (NOT elapsed) time is: 18h 51min 15sec
   layers done

   number of elements (per slice)        =         2240
   total number of elements (all slices) =         8960


   ...fills global mesh points

   ...checking mesh resolution and time step

 ----------------------------------
   Verification of mesh parameters:
 ----------------------------------
   Region is crust/mantle

   Min Vs =    3.19999981      (km/s)
   Max Vp =    13.7166214      (km/s)

   Max element edge size =    198.778397      (km)
   Min element edge size =    9.39962769      (km)
   Max/min ratio =    21.1474762

   Max Jacobian eigenvalue ratio =   0.999783278
   Min Jacobian eigenvalue ratio =    9.43141878E-02

   Minimum period resolved =    25.8099270      (s)
   Minimum period resolved (empirical) =    30.8874798      (s)
   Maximum suggested time step =   0.129999995      (s)

   for DT :   0.284999996      (s)
   Max stability for wave velocities =    1.19403839
 ----------------------------------

   saving vtk mesh files for resolution res_minimum_period...

   ...precomputing Jacobian

   ...creating chunk buffers

 ----- creating chunk buffers -----

 There are            2  slices along xi in each chunk
 There are            2  slices along eta in each chunk
 There is a total of            4  slices in each chunk
 There are            1  chunks
 There is a total of            4  slices in all the chunks

 There is a total of            2  messages to assemble faces between chunks


 only one chunk, no need to create chunk buffers


   ...preparing MPI interfaces

 crust/mantle region:
   #max of points in MPI buffers along xi npoin2D_xi =         3869
   #max of array elements transferred npoin2D_xi*NDIM =        11607

   #max of points in MPI buffers along eta npoin2D_eta =         3869
   #max of array elements transferred npoin2D_eta*NDIM =        11607

 crust mantle MPI:
   maximum interfaces:           3
   MPI addressing maximum interfaces:           3
   MPI addressing : all interfaces okay

   total MPI interface points :        31420
   unique MPI interface points:        30484
   maximum valence            :            3
   total unique MPI interface points:       30484


   ...element inner/outer separation

 for overlapping of communications with calculations:

 percentage of edge elements in crust/mantle    20.8482151     %
 percentage of volume elements in crust/mantle    79.1517868     %


   ...element mesh coloring
   mesh coloring:  F

   ...creating absorbing boundary arrays

   ...creating mass matrix

   ...saving binary files

   ...saving mesh files

 calculated region volume:    3.36577147E-02
                 top area:   0.120633043
              bottom area:    3.59922983E-02

 *******************************************
 creating mesh in region            2
 this region is the outer core
 *******************************************


 first pass

   ...allocating arrays

   ...setting up layers

   ...creating mesh elements
   creating layer            1 out of            2
     number of regular elements  =           28
     number of doubling elements =           32
     50.0%    current clock (NOT elapsed) time is: 18h 51min 15sec
   creating layer            2 out of            2
     number of regular elements  =          112
    100.0%    current clock (NOT elapsed) time is: 18h 51min 15sec
   layers done

   number of elements (per slice)        =          172
   total number of elements (all slices) =          688


   ...creating global addressing
     total number of points            :        21500
     array memory required per process :   0.49209594726562500      MB
     getting global points             : npointot =        21500  nspec =          172
     creating indirect addressing
     ibool ok

   ...creating MPI buffers

 second pass

   ...allocating arrays

   ...setting up layers

   ...creating mesh elements
   creating layer            1 out of            2
     number of regular elements  =           28
     number of doubling elements =           32
     50.0%    current clock (NOT elapsed) time is: 18h 51min 15sec
   creating layer            2 out of            2
     number of regular elements  =          112
    100.0%    current clock (NOT elapsed) time is: 18h 51min 15sec
   layers done

   number of elements (per slice)        =          172
   total number of elements (all slices) =          688


   ...fills global mesh points

   ...checking mesh resolution and time step

 ----------------------------------
   Verification of mesh parameters:
 ----------------------------------
   Region is outer core

   Min Vp =    8.06479359      (km/s)
   Max Vp =    10.3557148      (km/s)

   Max element edge size =    211.734451      (km)
   Min element edge size =    70.5779495      (km)
   Max/min ratio =    3.00000858

   Max Jacobian eigenvalue ratio =   0.998426497
   Min Jacobian eigenvalue ratio =   0.211511940

   Minimum period resolved =    21.8784752      (s)
   Minimum period resolved (empirical) =    30.8874798      (s)
   Maximum suggested time step =   0.689999998      (s)

   for DT :   0.284999996      (s)
   Max stability for wave velocities =   0.225912258
 ----------------------------------

   saving vtk mesh files for resolution res_minimum_period...

   ...precomputing Jacobian

   ...creating chunk buffers

 ----- creating chunk buffers -----

 There are            2  slices along xi in each chunk
 There are            2  slices along eta in each chunk
 There is a total of            4  slices in each chunk
 There are            1  chunks
 There is a total of            4  slices in all the chunks

 There is a total of            2  messages to assemble faces between chunks


 only one chunk, no need to create chunk buffers


   ...preparing MPI interfaces

 outer core region:
   #max of points in MPI buffers along xi npoin2D_xi =          877
   #max of array elements transferred npoin2D_xi*NDIM =         2631

   #max of points in MPI buffers along eta npoin2D_eta =          877
   #max of array elements transferred npoin2D_eta*NDIM =         2631

 outer core MPI:
   maximum interfaces:           3
   MPI addressing maximum interfaces:           3
   MPI addressing : all interfaces okay

   total MPI interface points :         7276
   unique MPI interface points:         6756
   maximum valence            :            3
   total assembled MPI interface points:        6756


   ...element inner/outer separation
 percentage of edge elements in outer core    51.1627922     %
 percentage of volume elements in outer core    48.8372078     %


   ...element mesh coloring
   mesh coloring:  F

   ...creating absorbing boundary arrays

   ...creating mass matrix

   ...saving binary files

   ...saving mesh files

 calculated region volume:    6.26989640E-03
                 top area:    3.59922983E-02
              bottom area:    4.43443097E-03

 *******************************************
 creating mesh in region            3
 this region is the inner core
 *******************************************


 first pass

   ...allocating arrays

   ...setting up layers

   ...creating mesh elements
   creating layer            1 out of            1
     number of regular elements  =            8
    100.0%    current clock (NOT elapsed) time is: 18h 51min 15sec
   layers done

   number of elements (per slice)        =            8
   total number of elements (all slices) =           32


   ...creating global addressing
     total number of points            :         1000
     array memory required per process :    2.2888183593750000E-002 MB
     getting global points             : npointot =         1000  nspec =            8
     creating indirect addressing
     ibool ok

   ...creating MPI buffers

 second pass

   ...allocating arrays

   ...setting up layers

   ...creating mesh elements
   creating layer            1 out of            1
     number of regular elements  =            8
    100.0%    current clock (NOT elapsed) time is: 18h 51min 15sec
   layers done

   number of elements (per slice)        =            8
   total number of elements (all slices) =           32


   ...fills global mesh points

   ...checking mesh resolution and time step

 ----------------------------------
   Verification of mesh parameters:
 ----------------------------------
   Region is inner core

   Min Vs =    3.50431156      (km/s)
   Max Vp =    11.1201019      (km/s)

   Max element edge size =    134.750061      (km)
   Min element edge size =    81.7966003      (km)
   Max/min ratio =    1.64737976

   Max Jacobian eigenvalue ratio =   0.791566491
   Min Jacobian eigenvalue ratio =   0.598831475

   Minimum period resolved =    33.6899300      (s)
   Minimum period resolved (empirical) =    30.8874798      (s)
   Maximum suggested time step =   0.694999993      (s)

   for DT :   0.284999996      (s)
   Max stability for wave velocities =   0.224384844
 ----------------------------------

   saving vtk mesh files for resolution res_minimum_period...

   ...precomputing Jacobian

   ...creating chunk buffers

 ----- creating chunk buffers -----

 There are            2  slices along xi in each chunk
 There are            2  slices along eta in each chunk
 There is a total of            4  slices in each chunk
 There are            1  chunks
 There is a total of            4  slices in all the chunks

 There is a total of            2  messages to assemble faces between chunks


 only one chunk, no need to create chunk buffers


   ...preparing MPI interfaces

 inner core region:
   #max of points in MPI buffers along xi npoin2D_xi =           81
   #max of array elements transferred npoin2D_xi*NDIM =          243

   #max of points in MPI buffers along eta npoin2D_eta =           81
   #max of array elements transferred npoin2D_eta*NDIM =          243

 inner core MPI:
   maximum interfaces:           3
   MPI addressing maximum interfaces:           3
   MPI addressing : all interfaces okay

   total MPI interface points :          684
   unique MPI interface points:          612
   maximum valence            :            3
   total assembled MPI interface points:         612


   ...element inner/outer separation
 percentage of edge elements in inner core    75.0000000     %
 percentage of volume elements in inner core    25.0000000     %


   ...element mesh coloring
   mesh coloring:  F

   ...creating absorbing boundary arrays

   ...creating mass matrix

   ...saving binary files

   ...saving mesh files

 calculated region volume:    1.49238665E-04
                 top area:    4.43443097E-03
              bottom area:    2.69354903E-03

 calculated volume:    4.0076851593289949E-002

 Repartition of elements in regions:
 ----------------------------------

 number of elements in each slice      :         2420
 total number of elements in all slices:         9680

  - crust and mantle:    92.5619812      %
  - outer core:    7.10743809      %
  - inner core:   0.330578506      %

 for some mesh statistics, see comments in file OUTPUT_FILES/values_from_mesher.h

 Load balancing = 100 % by definition


 the time step of the solver will be DT =   0.284999996

 using single precision for the calculations

 smallest and largest possible floating-point numbers are:    1.17549435E-38   3.40282347E+38


 Elapsed time for mesh generation and buffer creation in seconds =   0.327686012
 Elapsed time for mesh generation and buffer creation in hh:mm:ss =    0 h 00 m 00 s

 End of mesh generation

