
 ******************************
 **** Specfem3D MPI Solver ****
 ******************************


 Fixing slow underflow trapping problem using small initial field

 There are  24  MPI processes
 Processes are numbered from 0 to  23

 There are  48  elements along xi in each chunk
 There are  48  elements along eta in each chunk

 There are  2  slices along xi in each chunk
 There are  2  slices along eta in each chunk
 There is a total of  4  slices in each chunk
 There are  6  chunks
 There is a total of  24  slices in all the chunks

 NDIM =  3

 NGLLX =  5
 NGLLY =  5
 NGLLZ =  5

 using single precision for the calculations

 smallest and largest possible floating-point numbers are:  1.175494351E-38,  3.402823466E+38

 model: 1D_transversely_isotropic_prem
   no oceans
   no ellipticity
   no surface topography
   no self-gravitation
   no rotation
   no attenuation

   no 3-D lateral variations
   no heterogeneities in the mantle
   no crustal variations
   using unmodified 1D crustal model with two layers
   incorporating transverse isotropy
   no inner-core anisotropy
   no general mantle anisotropy


 mesh databases:
   reading in crust/mantle databases...
   reading in outer core databases...
   reading in inner core databases...
   reading in coupling surface databases...
   reading in addressing...
 Spatial distribution of the slices
                        3    1
                        2    0

    11    9       7    5      19   17
    10    8       6    4      18   16

                       23   21
                       22   20

                       15   13
                       14   12

   reading in MPI databases...
   for overlapping of communications with calculations:

   percentage of edge elements in crust/mantle  26.8312759 %
   percentage of volume elements in crust/mantle  73.1687241 %

   percentage of edge elements in outer core  63.5658913 %
   percentage of volume elements in outer core  36.4341087 %

   percentage of edge elements in inner core  56.9444466 %
   percentage of volume elements in inner core  43.0555534 %


 Elapsed time for reading mesh in seconds =  2.29643583


 sources:

 *************************************
  locating source  1
 *************************************

 source located in slice  4
                in element  3090

    xi coordinate of source in that element:  -0.91500744121227218
   eta coordinate of source in that element:  0.86669995081172757
 gamma coordinate of source in that element:  -0.34571178817636433

  half duration:  20.  seconds
     time shift:  0.  seconds

 magnitude of the source:
      scalar moment M0 =  2.62997300366372602E+28  dyne-cm
   moment magnitude Mw =  8.2466343844251071


 original (requested) position of the source:

       latitude:  -13.82
      longitude:  -67.25
          depth:  647.10000000000002  km

 position of the source that will be used:

       latitude:  -13.820000000000006
      longitude:  -67.249999999999986
          depth:  647.09999999999911  km

 Error in location of the source:  5.001529789E-13  km

 maximum error in location of the sources:  5.001529789E-13  km


 Elapsed time for detection of sources in seconds =  6.14500045776367187E-3

 End of source detection - done


 receivers:

 Total number of receivers =  1


 ********************
  locating receivers
 ********************

 reading receiver information...

 Stations sorted by epicentral distance:
 Station #     1:                  IU.ANMO    epicentral distance:     61.119137 degrees

 maximum error in location of all the receivers:  1.59147695E-12  km

 Elapsed time for receiver detection in seconds =  2.46348381042480469E-2

 End of receiver detection - done


      3  adjoint component traces found in all slices

 found a total of  1  receivers in all slices
 this total is okay

 source arrays:
   number of sources is  1
   size of source array                 =  1.430511475E-3 MB
                                        =  1.396983862E-6 GB

 seismograms:
   seismograms written by all processes
   writing out seismograms at every NTSTEP_BETWEEN_OUTPUT_SEISMOS =  5000
   maximum number of local receivers is  1  in slice  8
   size of maximum seismogram array       =  5.722045898E-2 MB
                                          =  5.587935448E-5 GB

 adjoint source arrays:
   reading adjoint sources at every NTSTEP_BETWEEN_READ_ADJSRC =  5000
   using asynchronous buffer for file I/O of adjoint sources
   maximum number of local adjoint sources is  1  in slice  8
   size of maximum adjoint source array =  7.15255737 MB
                                        =  6.98491931E-3 GB


 Total number of samples for seismograms =  5000


 Reference radius of the Earth used is  6371.  km


 no oceans

 no ellipticity

 no surface topography

 no self-gravitation

 no rotation

 no attenuation



 preparing mass matrices
 preparing constants
 preparing gravity arrays
 preparing wavefields

 Elapsed time for preparing timerun in seconds =  7.926797867E-2


 time loop:

               scheme:         Newmark
            time step:  0.189999998  s
 number of time steps:  5000
 total simulated time:  15.3301668  minutes
 start time          : -30.  seconds

 All processes are synchronized before time loop

 Starting time iteration loop...

 Time step #  5
 Time:  -0.487333328  minutes
 Max norm displacement vector U in solid in all slices for adjoint prop. (m)=  0.
 Max non-dimensional potential Ufluid in fluid in all slices for adjoint prop. =  1.000795586E-24
 Max norm displacement vector U in solid in all slices for back prop.(m) =  1.44288719
 Max non-dimensional potential Ufluid in fluid in all slices for back prop.=  1.227017099E-11
 Max of strain, eps_trace_over_3_crust_mantle = 1.608031109E-22
 Max of strain, epsilondev_crust_mantle  = 2.289132983E-22
 Elapsed time in seconds =  2.4432189464569092
 Elapsed time in hh:mm:ss =      0 h 00 m 02 s
 Mean elapsed time per time step in seconds =  0.48864378929138186
 Time steps done =  5  out of  5000
 Time steps remaining =  4995
 Estimated remaining time in seconds =  2440.7757275104523
 Estimated remaining time in hh:mm:ss =      0 h 40 m 40 s
 Estimated total run time in seconds =  2443.2189464569092
 Estimated total run time in hh:mm:ss =      0 h 40 m 43 s
 We have done  0.100000001 % of that
 The run will finish approximately on (in local time): Mon Jun 15, 2015 17:44
 ************************************************************
 **** BEWARE: the above time estimates are not reliable
 **** because fewer than 100 iterations have been performed
 ************************************************************

 Time step #  1000
 Time:  2.66350007  minutes
 Max norm displacement vector U in solid in all slices for adjoint prop. (m)=  0.
 Max non-dimensional potential Ufluid in fluid in all slices for adjoint prop. =  1.288485762E-24
 Max norm displacement vector U in solid in all slices for back prop.(m) =  1.44238496
 Max non-dimensional potential Ufluid in fluid in all slices for back prop.=  1.111873614E-11
 Max of strain, eps_trace_over_3_crust_mantle = 2.194147567E-22
 Max of strain, epsilondev_crust_mantle  = 3.095189289E-22
 Elapsed time in seconds =  124.30401086807251
 Elapsed time in hh:mm:ss =      0 h 02 m 04 s
 Mean elapsed time per time step in seconds =  0.12430401086807251
 Time steps done =  1000  out of  5000
 Time steps remaining =  4000
 Estimated remaining time in seconds =  497.21604347229004
 Estimated remaining time in hh:mm:ss =      0 h 08 m 17 s
 Estimated total run time in seconds =  621.52005434036255
 Estimated total run time in hh:mm:ss =      0 h 10 m 21 s
 We have done  20. % of that
 The run will finish approximately on (in local time): Mon Jun 15, 2015 17:13

 Time step #  2000
 Time:  5.83016682  minutes
 Max norm displacement vector U in solid in all slices for adjoint prop. (m)=  35591.5625
 Max non-dimensional potential Ufluid in fluid in all slices for adjoint prop. =  1.526170638E-24
 Max norm displacement vector U in solid in all slices for back prop.(m) =  1.44197929
 Max non-dimensional potential Ufluid in fluid in all slices for back prop.=  9.552318138E-12
 Max of strain, eps_trace_over_3_crust_mantle = 0.305915207
 Max of strain, epsilondev_crust_mantle  = 0.380598694
 Elapsed time in seconds =  246.25448799133301
 Elapsed time in hh:mm:ss =      0 h 04 m 06 s
 Mean elapsed time per time step in seconds =  0.1231272439956665
 Time steps done =  2000  out of  5000
 Time steps remaining =  3000
 Estimated remaining time in seconds =  369.38173198699951
 Estimated remaining time in hh:mm:ss =      0 h 06 m 09 s
 Estimated total run time in seconds =  615.63621997833252
 Estimated total run time in hh:mm:ss =      0 h 10 m 15 s
 We have done  40. % of that
 The run will finish approximately on (in local time): Mon Jun 15, 2015 17:13

 Time step #  3000
 Time:  8.9968338  minutes
 Max norm displacement vector U in solid in all slices for adjoint prop. (m)=  1380.02905
 Max non-dimensional potential Ufluid in fluid in all slices for adjoint prop. =  1.197432691E-11
 Max norm displacement vector U in solid in all slices for back prop.(m) =  1.44271564
 Max non-dimensional potential Ufluid in fluid in all slices for back prop.=  1.411596881E-11
 Max of strain, eps_trace_over_3_crust_mantle = 6.479838397E-3
 Max of strain, epsilondev_crust_mantle  = 1.525944099E-2
 Elapsed time in seconds =  368.20901894569397
 Elapsed time in hh:mm:ss =      0 h 06 m 08 s
 Mean elapsed time per time step in seconds =  0.12273633964856465
 Time steps done =  3000  out of  5000
 Time steps remaining =  2000
 Estimated remaining time in seconds =  245.47267929712933
 Estimated remaining time in hh:mm:ss =      0 h 04 m 05 s
 Estimated total run time in seconds =  613.68169824282336
 Estimated total run time in hh:mm:ss =      0 h 10 m 13 s
 We have done  60. % of that
 The run will finish approximately on (in local time): Mon Jun 15, 2015 17:13

 Time step #  4000
 Time:  12.1634998  minutes
 Max norm displacement vector U in solid in all slices for adjoint prop. (m)=  899.361694
 Max non-dimensional potential Ufluid in fluid in all slices for adjoint prop. =  5.762262276E-7
 Max norm displacement vector U in solid in all slices for back prop.(m) =  1.44310462
 Max non-dimensional potential Ufluid in fluid in all slices for back prop.=  7.155869017E-15
 Max of strain, eps_trace_over_3_crust_mantle = 3.797391197E-3
 Max of strain, epsilondev_crust_mantle  = 8.887173608E-3
 Elapsed time in seconds =  490.49300193786621
 Elapsed time in hh:mm:ss =      0 h 08 m 10 s
 Mean elapsed time per time step in seconds =  0.12262325048446655
 Time steps done =  4000  out of  5000
 Time steps remaining =  1000
 Estimated remaining time in seconds =  122.62325048446655
 Estimated remaining time in hh:mm:ss =      0 h 02 m 02 s
 Estimated total run time in seconds =  613.11625242233276
 Estimated total run time in hh:mm:ss =      0 h 10 m 13 s
 We have done  80. % of that
 The run will finish approximately on (in local time): Mon Jun 15, 2015 17:13

 Time step #  5000
 Time:  15.3301668  minutes
 Max norm displacement vector U in solid in all slices for adjoint prop. (m)=  805.966492
 Max non-dimensional potential Ufluid in fluid in all slices for adjoint prop. =  5.842472319E-7
 Max norm displacement vector U in solid in all slices for back prop.(m) =  4.618505955E-6
 Max non-dimensional potential Ufluid in fluid in all slices for back prop.=  5.951609506E-17
 Max of strain, eps_trace_over_3_crust_mantle = 3.383676987E-3
 Max of strain, epsilondev_crust_mantle  = 6.038201507E-3
 Elapsed time in seconds =  612.35191988945007
 Elapsed time in hh:mm:ss =      0 h 10 m 12 s
 Mean elapsed time per time step in seconds =  0.12247038397789002
 Time steps done =  5000  out of  5000
 Time steps remaining =  0
 Estimated remaining time in seconds =  0.
 Estimated remaining time in hh:mm:ss =      0 h 00 m 00 s
 Estimated total run time in seconds =  612.35191988945007
 Estimated total run time in hh:mm:ss =      0 h 10 m 12 s
 We have done  100. % of that


 Total number of time steps written:  5000

 Writing the seismograms in parallel took  3.22659015655517578E-2  seconds

 Time-Loop Complete. Timing info:
 Total elapsed time in seconds =  612.50991606712341
 Total elapsed time in hh:mm:ss =      0 h 10 m 12 s

 End of the simulation

