
 ****************************
 *** Specfem3D MPI Mesher ***
 ****************************


 There are  24  MPI processes
 Processes are numbered from 0 to  23

 There are  48  elements along xi in each chunk
 There are  48  elements along eta in each chunk

 There are  2  slices along xi in each chunk
 There are  2  slices along eta in each chunk
 There is a total of  4  slices in each chunk
 There are  6  chunks in the global mesh
 There is a total of  24  slices in the global mesh

 NGLLX =  5
 NGLLY =  5
 NGLLZ =  5

 Shape functions defined by NGNOD =  27  control nodes
 Surface shape functions defined by NGNOD2D =  9  control nodes

 model: 1D_transversely_isotropic_prem
   no oceans
   no ellipticity
   no surface topography
   no self-gravitation
   no rotation
   no attenuation

   no 3-D lateral variations
   no heterogeneities in the mantle
   no crustal variations
   using unmodified 1D crustal model with two layers
   incorporating anisotropy
   no inner-core anisotropy
   no general mantle anisotropy

 Reference radius of the Earth used is  6371.  km

 Central cube is at a radius of  950.  km
 creating global slice addressing

 Spatial distribution of the slices
                        3    1
                        2    0

    11    9       7    5      19   17
    10    8       6    4      18   16

                       23   21
                       22   20

                       15   13
                       14   12


 additional mesh optimizations

 moho:
   no element stretching for 3-D moho surface

 internal topography 410/660:
   no element stretching for 3-D internal surfaces



 *******************************************
 creating mesh in region  1
 this region is the crust and mantle
 *******************************************


 first pass

   ...allocating arrays

   ...setting up layers

   ...creating mesh elements
   creating layer  1 out of  11
      9.1%    current clock (NOT elapsed) time is: 16h 18min 17sec
   creating layer  2 out of  11
     18.2%    current clock (NOT elapsed) time is: 16h 18min 17sec
   creating layer  3 out of  11
     27.3%    current clock (NOT elapsed) time is: 16h 18min 17sec
   creating layer  4 out of  11
     36.4%    current clock (NOT elapsed) time is: 16h 18min 17sec
   creating layer  5 out of  11
     45.5%    current clock (NOT elapsed) time is: 16h 18min 17sec
   creating layer  6 out of  11
     54.5%    current clock (NOT elapsed) time is: 16h 18min 17sec
   creating layer  7 out of  11
     63.6%    current clock (NOT elapsed) time is: 16h 18min 17sec
   creating layer  8 out of  11
     72.7%    current clock (NOT elapsed) time is: 16h 18min 17sec
   creating layer  9 out of  11
     81.8%    current clock (NOT elapsed) time is: 16h 18min 17sec
   creating layer  10 out of  11
     90.9%    current clock (NOT elapsed) time is: 16h 18min 17sec
   creating layer  11 out of  11
    100.0%    current clock (NOT elapsed) time is: 16h 18min 17sec


   ...creating global addressing

   ...creating MPI buffers

 second pass

   ...allocating arrays

   ...setting up layers

   ...creating mesh elements
   creating layer  1 out of  11
      9.1%    current clock (NOT elapsed) time is: 16h 18min 18sec
   creating layer  2 out of  11
     18.2%    current clock (NOT elapsed) time is: 16h 18min 18sec
   creating layer  3 out of  11
     27.3%    current clock (NOT elapsed) time is: 16h 18min 18sec
   creating layer  4 out of  11
     36.4%    current clock (NOT elapsed) time is: 16h 18min 18sec
   creating layer  5 out of  11
     45.5%    current clock (NOT elapsed) time is: 16h 18min 18sec
   creating layer  6 out of  11
     54.5%    current clock (NOT elapsed) time is: 16h 18min 18sec
   creating layer  7 out of  11
     63.6%    current clock (NOT elapsed) time is: 16h 18min 18sec
   creating layer  8 out of  11
     72.7%    current clock (NOT elapsed) time is: 16h 18min 18sec
   creating layer  9 out of  11
     81.8%    current clock (NOT elapsed) time is: 16h 18min 18sec
   creating layer  10 out of  11
     90.9%    current clock (NOT elapsed) time is: 16h 18min 19sec
   creating layer  11 out of  11
    100.0%    current clock (NOT elapsed) time is: 16h 18min 19sec


   ...precomputing Jacobian

   ...creating chunk buffers

 ----- creating chunk buffers -----

 There are  2  slices along xi in each chunk
 There are  2  slices along eta in each chunk
 There is a total of  4  slices in each chunk
 There are  6  chunks
 There is a total of  24  slices in all the chunks

 There is a total of  24  messages to assemble faces between chunks

 Generating message  1  for faces out of  24
 Generating message  2  for faces out of  24
 Generating message  3  for faces out of  24
 Generating message  4  for faces out of  24
 Generating message  5  for faces out of  24
 Generating message  6  for faces out of  24
 Generating message  7  for faces out of  24
 Generating message  8  for faces out of  24
 Generating message  9  for faces out of  24
 Generating message  10  for faces out of  24
 Generating message  11  for faces out of  24
 Generating message  12  for faces out of  24
 Generating message  13  for faces out of  24
 Generating message  14  for faces out of  24
 Generating message  15  for faces out of  24
 Generating message  16  for faces out of  24
 Generating message  17  for faces out of  24
 Generating message  18  for faces out of  24
 Generating message  19  for faces out of  24
 Generating message  20  for faces out of  24
 Generating message  21  for faces out of  24
 Generating message  22  for faces out of  24
 Generating message  23  for faces out of  24
 Generating message  24  for faces out of  24

 all the messages for chunk faces have the right size

 Generating message  1  for corners out of  8
 Generating message  2  for corners out of  8
 Generating message  3  for corners out of  8
 Generating message  4  for corners out of  8
 Generating message  5  for corners out of  8
 Generating message  6  for corners out of  8
 Generating message  7  for corners out of  8
 Generating message  8  for corners out of  8

   ...preparing MPI interfaces

 crust/mantle region:
   #max of points in MPI buffers along xi npoin2D_xi =  5449
   #max of array elements transferred npoin2D_xi*NDIM =  16347

   #max of points in MPI buffers along eta npoin2D_eta =  5449
   #max of array elements transferred npoin2D_eta*NDIM =  16347

 crust mantle MPI:
   maximum interfaces: 7
   MPI addressing maximum interfaces: 7
   MPI addressing : all interfaces okay

   total MPI interface points :  530952
   unique MPI interface points:  512640
   maximum valence            :  3
   total unique MPI interface points: 512640


   ...element inner/outer separation

 for overlapping of communications with calculations:

 percentage of edge elements in crust/mantle  26.831274 %
 percentage of volume elements in crust/mantle  73.1687241 %


   ...element mesh coloring
   mesh coloring:  F

   ...creating mass matrix

   ...saving binary files

    calculated top area:  12.566370579194894
             exact area:  12.566370614359172
 calculated bottom area:  3.7493225048710057
             exact area:  3.7493254667646689

 *******************************************
 creating mesh in region  2
 this region is the outer core
 *******************************************


 first pass

   ...allocating arrays

   ...setting up layers

   ...creating mesh elements
   creating layer  1 out of  2
     50.0%    current clock (NOT elapsed) time is: 16h 18min 20sec
   creating layer  2 out of  2
    100.0%    current clock (NOT elapsed) time is: 16h 18min 20sec


   ...creating global addressing

   ...creating MPI buffers

 second pass

   ...allocating arrays

   ...setting up layers

   ...creating mesh elements
   creating layer  1 out of  2
     50.0%    current clock (NOT elapsed) time is: 16h 18min 20sec
   creating layer  2 out of  2
    100.0%    current clock (NOT elapsed) time is: 16h 18min 20sec


   ...precomputing Jacobian

   ...creating chunk buffers

 ----- creating chunk buffers -----

 There are  2  slices along xi in each chunk
 There are  2  slices along eta in each chunk
 There is a total of  4  slices in each chunk
 There are  6  chunks
 There is a total of  24  slices in all the chunks

 There is a total of  24  messages to assemble faces between chunks

 Generating message  1  for faces out of  24
 Generating message  2  for faces out of  24
 Generating message  3  for faces out of  24
 Generating message  4  for faces out of  24
 Generating message  5  for faces out of  24
 Generating message  6  for faces out of  24
 Generating message  7  for faces out of  24
 Generating message  8  for faces out of  24
 Generating message  9  for faces out of  24
 Generating message  10  for faces out of  24
 Generating message  11  for faces out of  24
 Generating message  12  for faces out of  24
 Generating message  13  for faces out of  24
 Generating message  14  for faces out of  24
 Generating message  15  for faces out of  24
 Generating message  16  for faces out of  24
 Generating message  17  for faces out of  24
 Generating message  18  for faces out of  24
 Generating message  19  for faces out of  24
 Generating message  20  for faces out of  24
 Generating message  21  for faces out of  24
 Generating message  22  for faces out of  24
 Generating message  23  for faces out of  24
 Generating message  24  for faces out of  24

 all the messages for chunk faces have the right size

 Generating message  1  for corners out of  8
 Generating message  2  for corners out of  8
 Generating message  3  for corners out of  8
 Generating message  4  for corners out of  8
 Generating message  5  for corners out of  8
 Generating message  6  for corners out of  8
 Generating message  7  for corners out of  8
 Generating message  8  for corners out of  8

   ...preparing MPI interfaces

 outer core region:
   #max of points in MPI buffers along xi npoin2D_xi =  1337
   #max of array elements transferred npoin2D_xi*NDIM =  4011

   #max of points in MPI buffers along eta npoin2D_eta =  1385
   #max of array elements transferred npoin2D_eta*NDIM =  4155

 outer core MPI:
   maximum interfaces: 7
   MPI addressing maximum interfaces: 7
   MPI addressing : all interfaces okay

   total MPI interface points :  132072
   unique MPI interface points:  120384
   maximum valence            :  3
   total assembled MPI interface points: 120384


   ...element inner/outer separation
 percentage of edge elements in outer core  63.5658875 %
 percentage of volume elements in outer core  36.4341125 %


   ...element mesh coloring
   mesh coloring:  F

   ...creating mass matrix

   ...saving binary files

    calculated top area:  3.7493225048710057
             exact area:  3.7493254667646689
 calculated bottom area:  0.46155180134655271
             exact area:  0.46155768002682868

 *******************************************
 creating mesh in region  3
 this region is the inner core
 *******************************************


 first pass

   ...allocating arrays

   ...setting up layers

   ...creating mesh elements
   creating layer  1 out of  1
    100.0%    current clock (NOT elapsed) time is: 16h 18min 22sec

   creating central cube

   ...creating global addressing

   ...creating MPI buffers

 second pass

   ...allocating arrays

   ...setting up layers

   ...creating mesh elements
   creating layer  1 out of  1
    100.0%    current clock (NOT elapsed) time is: 16h 18min 22sec

   creating central cube

   ...precomputing Jacobian

   ...creating chunk buffers

 ----- creating chunk buffers -----

 There are  2  slices along xi in each chunk
 There are  2  slices along eta in each chunk
 There is a total of  4  slices in each chunk
 There are  6  chunks
 There is a total of  24  slices in all the chunks

 There is a total of  24  messages to assemble faces between chunks

 Generating message  1  for faces out of  24
 Generating message  2  for faces out of  24
 Generating message  3  for faces out of  24
 Generating message  4  for faces out of  24
 Generating message  5  for faces out of  24
 Generating message  6  for faces out of  24
 Generating message  7  for faces out of  24
 Generating message  8  for faces out of  24
 Generating message  9  for faces out of  24
 Generating message  10  for faces out of  24
 Generating message  11  for faces out of  24
 Generating message  12  for faces out of  24
 Generating message  13  for faces out of  24
 Generating message  14  for faces out of  24
 Generating message  15  for faces out of  24
 Generating message  16  for faces out of  24
 Generating message  17  for faces out of  24
 Generating message  18  for faces out of  24
 Generating message  19  for faces out of  24
 Generating message  20  for faces out of  24
 Generating message  21  for faces out of  24
 Generating message  22  for faces out of  24
 Generating message  23  for faces out of  24
 Generating message  24  for faces out of  24

 all the messages for chunk faces have the right size

 Generating message  1  for corners out of  8
 Generating message  2  for corners out of  8
 Generating message  3  for corners out of  8
 Generating message  4  for corners out of  8
 Generating message  5  for corners out of  8
 Generating message  6  for corners out of  8
 Generating message  7  for corners out of  8
 Generating message  8  for corners out of  8

   ...preparing MPI interfaces

 inner core region:
   #max of points in MPI buffers along xi npoin2D_xi =  429
   #max of array elements transferred npoin2D_xi*NDIM =  1287

   #max of points in MPI buffers along eta npoin2D_eta =  429
   #max of array elements transferred npoin2D_eta*NDIM =  1287


 including central cube

 inner core MPI:
 inner core with central cube MPI:
   maximum interfaces: 15
   MPI addressing maximum interfaces: 15
   MPI addressing : all interfaces okay

   total MPI interface points :  21864
   unique MPI interface points:  17880
   maximum valence            :  7
   total assembled MPI interface points: 17880


   ...element inner/outer separation
 percentage of edge elements in inner core  56.9444427 %
 percentage of volume elements in inner core  43.0555573 %


   ...element mesh coloring
   mesh coloring:  F

   ...creating mass matrix

   ...saving binary files

    calculated top area:  0.46155180134655271
             exact area:  0.46155768002682868
 calculated bottom area:  0.21169690506049865
             more or less similar area (central cube):  0.17787790385168642

 calculated volume:  4.1887901261443377
      exact volume:  4.1887902047863905

 computed total Earth mass for this density model and mesh:  5.97553703266215937E+24  kg
    (should be not too far from 5.974E+24 kg)

 average density for this density model and mesh:  5516.5241764240236  kg/m3
    (should be not too far from 5514 kg/m3)

 position of the center of mass of the Earth for this density model and mesh:
    x =  -0.60622063369426571  km
    y =  -0.43310399187886112  km
    z =  -0.5200786374770423  km
    distance to center =  0.90860569757076592  km


 Repartition of elements in regions:
 ----------------------------------

 total number of elements in each slice:  5319

  - crust and mantle:  91.3705597  %
  - outer core:  7.27580357  %
  - inner core:  1.35363793  %

 for some mesh statistics, see comments in file OUTPUT_FILES/values_from_mesher.h

 Load balancing = 100 % by definition


 the time step of the solver will be DT =  0.189999998

 using single precision for the calculations

 smallest and largest possible floating-point numbers are:  1.175494351E-38,  3.402823466E+38


 Elapsed time for mesh generation and buffer creation in seconds =  4.7216651439666748
 Elapsed time for mesh generation and buffer creation in hh:mm:ss =    0 h 00 m 04 s

 End of mesh generation

