
 ****************************
 *** Specfem3D MPI Mesher ***
 ****************************

 Version: 8.1.1


 Planet: Earth


 There are            4  MPI processes
 Processes are numbered from 0 to            3

 There are           16  elements along xi in each chunk
 There are           16  elements along eta in each chunk

 There are            2  slices along xi in each chunk
 There are            2  slices along eta in each chunk
 There is a total of            4  slices in each chunk
 There are            1  chunks in the global mesh
 There is a total of            4  slices in the global mesh

 NGLLX =            5
 NGLLY =            5
 NGLLZ =            5

 Shape functions defined by NGNOD =           27  control nodes
 Surface shape functions defined by NGNOD2D =            9  control nodes

 model: s40rts_crust1.0
   incorporating the oceans using equivalent load
   incorporating ellipticity
   incorporating surface topography
   incorporating self-gravitation (Cowling approximation)
   incorporating rotation
   incorporating attenuation using            3  standard linear solids

   incorporating 3-D lateral variations in the mantle
   no heterogeneities in the mantle
   incorporating crustal variations
   using one layer only in crust
   incorporating transverse isotropy
   no inner-core anisotropy
   no general mantle anisotropy

 Reference radius of the globe used is    6371.0000000000000       km

 Central cube is at a radius of    930.00000000000000       km
 creating global slice addressing


 incorporating topography
   topo file            : DATA/topo_bathy/topo_bathy_etopo4_smoothed_window_7.bin
   resolution in minutes:    4.00000000

   topography/bathymetry: min/max =        -7747        5507

   Elapsed time for reading in seconds =    1.7744999999999997E-002


   VTK topo output: topo resolution in minutes =    4.00000000
                    samples per degree         =    15.0000000
                    resolution distance        =    7.41299534     (km)
                    full globe NLAT =         2700
                               NLON =         5400
                               total number of points NLAT x NLON =     14580000
                    limiting output to samples per degree         =            4

   elevations written to file: ./DATABASES_MPI/mesh_topo_bathy.vtk
   min/max =   -7.71626568     /   5.49881268     (km)

 broadcast model: S40RTS

 incorporating crustal model: CRUST1.0

   Moho crustal thickness (without ice) min/max =    4.13000011       80.0000000      km


   VTK moho output: resolution =            1 deg
                    NLAT =          180
                    NLON =          360

   moho depths written to file: ./DATABASES_MPI/mesh_moho_depth.vtk
   min/max =    5.59049988     /   74.4168549     (km)

   sediment depths written to file: ./DATABASES_MPI/mesh_sediment_depth.vtk
   min/max =    0.00000000     /   18.7808456     (km)

 attenuation model:
   1D reference model
   model: PREM attenuation

 additional mesh optimizations

 moho:
   default  2-layer crust
   incorporating element stretching for 3-D moho surface

 internal topography 410/660:
   no element stretching for 3-D internal surfaces


 Radial Meshing parameters:
   NCHUNKS                =            1

   CENTER LAT/LON:             65.0000000     /  -20.0000000
   GAMMA_ROTATION_AZIMUTH:     60.0000000

   CHUNK WIDTH XI/ETA:         30.0000000     /   30.0000000
   NEX XI/ETA:                        16 /          16

   NER_CRUST:                          2
   NER_80_MOHO:                        1
   NER_220_80:                         2
   NER_400_220:                        2
   NER_600_400:                        2
   NER_670_600:                        1
   NER_771_670:                        1
   NER_TOPDDOUBLEPRIME_771:           15
   NER_CMB_TOPDDOUBLEPRIME:            1
   NER_OUTER_CORE:                    16
   NER_TOP_CENTRAL_CUBE_ICB:           2
   SUPPRESS_CRUSTAL_MESH:    F

   R_CENTRAL_CUBE =    930.000000      km

 Mesh resolution:
   DT =   0.11500000000000000
   Minimum period =    92.6624374      (s)

   MIN_ATTENUATION_PERIOD =    92.6624374
   MAX_ATTENUATION_PERIOD =    5210.79199



 *******************************************
 creating mesh in region            1
 this region is the crust and mantle
 *******************************************


 first pass

   ...allocating arrays

   ...setting up layers

   ...creating mesh elements
   creating layer            1 out of           10
     number of regular elements  =            0
     number of doubling elements =          112
   setting tiso flags in mantle model
     10.0%    current clock (NOT elapsed) time is: 18h 57min 15sec
   creating layer            2 out of           10
     number of regular elements  =           32
     20.0%    current clock (NOT elapsed) time is: 18h 57min 15sec
   creating layer            3 out of           10
     number of regular elements  =            4
     30.0%    current clock (NOT elapsed) time is: 18h 57min 15sec
   creating layer            4 out of           10
     number of regular elements  =           24
     number of doubling elements =           32
     40.0%    current clock (NOT elapsed) time is: 18h 57min 15sec
   creating layer            5 out of           10
     number of regular elements  =          112
     50.0%    current clock (NOT elapsed) time is: 18h 57min 15sec
   creating layer            6 out of           10
     number of regular elements  =           16
     60.0%    current clock (NOT elapsed) time is: 18h 57min 15sec
   creating layer            7 out of           10
     number of regular elements  =           16
     70.0%    current clock (NOT elapsed) time is: 18h 57min 15sec
   creating layer            8 out of           10
     number of regular elements  =           32
     80.0%    current clock (NOT elapsed) time is: 18h 57min 15sec
   creating layer            9 out of           10
     number of regular elements  =           32
     90.0%    current clock (NOT elapsed) time is: 18h 57min 15sec
   creating layer           10 out of           10
     number of regular elements  =          128
    100.0%    current clock (NOT elapsed) time is: 18h 57min 15sec
   layers done

   number of elements (per slice)        =          540
   total number of elements (all slices) =         2160


   ...creating global addressing
     total number of points            :        67500
     array memory required per process :    1.5449523925781250      MB
     getting global points             : npointot =        67500  nspec =          540
     creating indirect addressing
     ibool ok

   ...creating MPI buffers

 second pass

   ...allocating arrays

   ...setting up layers

   ...creating mesh elements
   creating layer            1 out of           10
     number of regular elements  =            0
     number of doubling elements =          112
     10.0%    current clock (NOT elapsed) time is: 18h 57min 15sec
   creating layer            2 out of           10
     number of regular elements  =           32
     20.0%    current clock (NOT elapsed) time is: 18h 57min 15sec
   creating layer            3 out of           10
     number of regular elements  =            4
     30.0%    current clock (NOT elapsed) time is: 18h 57min 15sec
   creating layer            4 out of           10
     number of regular elements  =           24
     number of doubling elements =           32
     40.0%    current clock (NOT elapsed) time is: 18h 57min 16sec
   creating layer            5 out of           10
     number of regular elements  =          112
     50.0%    current clock (NOT elapsed) time is: 18h 57min 16sec
   creating layer            6 out of           10
     number of regular elements  =           16
     60.0%    current clock (NOT elapsed) time is: 18h 57min 16sec
   creating layer            7 out of           10
     number of regular elements  =           16
     70.0%    current clock (NOT elapsed) time is: 18h 57min 16sec
   creating layer            8 out of           10
     number of regular elements  =           32
     80.0%    current clock (NOT elapsed) time is: 18h 57min 16sec
   creating layer            9 out of           10
     number of regular elements  =           32
     90.0%    current clock (NOT elapsed) time is: 18h 57min 17sec
   creating layer           10 out of           10
     number of regular elements  =          128
    100.0%    current clock (NOT elapsed) time is: 18h 57min 17sec
   layers done

   number of elements (per slice)        =          540
   total number of elements (all slices) =         2160


   ...fills global mesh points

   ...checking mesh resolution and time step

 ----------------------------------
   Verification of mesh parameters:
 ----------------------------------
   Region is crust/mantle

   Min Vs =   0.550000429      (km/s)
   Max Vp =    13.7775116      (km/s)

   Max element edge size =    593.351868      (km)
   Min element edge size =    5.50600529      (km)
   Max/min ratio =    107.764496

   Max Jacobian eigenvalue ratio =   0.645100176
   Min Jacobian eigenvalue ratio =    2.50382759E-02

   Minimum period resolved =    33.4339142      (s)
   Minimum period resolved (empirical) =    92.6624374      (s)
   Maximum suggested time step =    7.34999999E-02  (s)

   for DT :   0.115000002      (s)
   Max stability for wave velocities =   0.858805954
 ----------------------------------

   saving vtk mesh files for resolution res_minimum_period...

   ...precomputing Jacobian

   ...creating chunk buffers

 ----- creating chunk buffers -----

 There are            2  slices along xi in each chunk
 There are            2  slices along eta in each chunk
 There is a total of            4  slices in each chunk
 There are            1  chunks
 There is a total of            4  slices in all the chunks

 There is a total of            2  messages to assemble faces between chunks


 only one chunk, no need to create chunk buffers


   ...preparing MPI interfaces

 crust/mantle region:
   #max of points in MPI buffers along xi npoin2D_xi =         1889
   #max of array elements transferred npoin2D_xi*NDIM =         5667

   #max of points in MPI buffers along eta npoin2D_eta =         1889
   #max of array elements transferred npoin2D_eta*NDIM =         5667

 crust mantle MPI:
   maximum interfaces:           3
   MPI addressing maximum interfaces:           3
   MPI addressing : all interfaces okay

   total MPI interface points :        15548
   unique MPI interface points:        14676
   maximum valence            :            3
   total unique MPI interface points:       14676


   ...element inner/outer separation

 for overlapping of communications with calculations:

 percentage of edge elements in crust/mantle    38.3333321     %
 percentage of volume elements in crust/mantle    61.6666679     %


   ...element mesh coloring
   mesh coloring:  F

   ...creating absorbing boundary arrays

   ...creating mass matrix
     updates mass matrix with Stacey boundary corrections
     updates mass matrix with ocean load

   ...saving binary files

   ...saving mesh files

 calculated region volume:    7.44234174E-02
                 top area:   0.267272323
              bottom area:    7.98218325E-02

 *******************************************
 creating mesh in region            2
 this region is the outer core
 *******************************************


 first pass

   ...allocating arrays

   ...setting up layers

   ...creating mesh elements
   creating layer            1 out of            2
     number of regular elements  =            7
     number of doubling elements =            8
     50.0%    current clock (NOT elapsed) time is: 18h 57min 17sec
   creating layer            2 out of            2
     number of regular elements  =           28
    100.0%    current clock (NOT elapsed) time is: 18h 57min 17sec
   layers done

   number of elements (per slice)        =           43
   total number of elements (all slices) =          172


   ...creating global addressing
     total number of points            :         5375
     array memory required per process :   0.12302398681640625      MB
     getting global points             : npointot =         5375  nspec =           43
     creating indirect addressing
     ibool ok

   ...creating MPI buffers

 second pass

   ...allocating arrays

   ...setting up layers

   ...creating mesh elements
   creating layer            1 out of            2
     number of regular elements  =            7
     number of doubling elements =            8
     50.0%    current clock (NOT elapsed) time is: 18h 57min 17sec
   creating layer            2 out of            2
     number of regular elements  =           28
    100.0%    current clock (NOT elapsed) time is: 18h 57min 17sec
   layers done

   number of elements (per slice)        =           43
   total number of elements (all slices) =          172


   ...fills global mesh points

   ...checking mesh resolution and time step

 ----------------------------------
   Verification of mesh parameters:
 ----------------------------------
   Region is outer core

   Min Vp =    8.06479359      (km/s)
   Max Vp =    10.3557148      (km/s)

   Max element edge size =    613.044861      (km)
   Min element edge size =    70.4595413      (km)
   Max/min ratio =    8.70066452

   Max Jacobian eigenvalue ratio =   0.657424212
   Min Jacobian eigenvalue ratio =    8.09716135E-02

   Minimum period resolved =    21.8586426      (s)
   Minimum period resolved (empirical) =    92.6624374      (s)
   Maximum suggested time step =   0.689999998      (s)

   for DT :   0.115000002      (s)
   Max stability for wave velocities =    9.13108587E-02
 ----------------------------------

   saving vtk mesh files for resolution res_minimum_period...

   ...precomputing Jacobian

   ...creating chunk buffers

 ----- creating chunk buffers -----

 There are            2  slices along xi in each chunk
 There are            2  slices along eta in each chunk
 There is a total of            4  slices in each chunk
 There are            1  chunks
 There is a total of            4  slices in all the chunks

 There is a total of            2  messages to assemble faces between chunks


 only one chunk, no need to create chunk buffers


   ...preparing MPI interfaces

 outer core region:
   #max of points in MPI buffers along xi npoin2D_xi =          493
   #max of array elements transferred npoin2D_xi*NDIM =         1479

   #max of points in MPI buffers along eta npoin2D_eta =          509
   #max of array elements transferred npoin2D_eta*NDIM =         1527

 outer core MPI:
   maximum interfaces:           3
   MPI addressing maximum interfaces:           3
   MPI addressing : all interfaces okay

   total MPI interface points :         4300
   unique MPI interface points:         3716
   maximum valence            :            3
   total assembled MPI interface points:        3716


   ...element inner/outer separation
 percentage of edge elements in outer core    81.3953476     %
 percentage of volume elements in outer core    18.6046524     %


   ...element mesh coloring
   mesh coloring:  F

   ...creating absorbing boundary arrays

   ...creating mass matrix
     updates mass matrix with Stacey boundary corrections

   ...saving binary files

   ...saving mesh files

 calculated region volume:    1.38889281E-02
                 top area:    7.98218325E-02
              bottom area:    9.83539969E-03

 *******************************************
 creating mesh in region            3
 this region is the inner core
 *******************************************


 first pass

   ...allocating arrays

   ...setting up layers

   ...creating mesh elements
   creating layer            1 out of            1
     number of regular elements  =            2
    100.0%    current clock (NOT elapsed) time is: 18h 57min 17sec
   layers done

   number of elements (per slice)        =            2
   total number of elements (all slices) =            8


   ...creating global addressing
     total number of points            :          250
     array memory required per process :    5.7220458984375000E-003 MB
     getting global points             : npointot =          250  nspec =            2
     creating indirect addressing
     ibool ok

   ...creating MPI buffers

 second pass

   ...allocating arrays

   ...setting up layers

   ...creating mesh elements
   creating layer            1 out of            1
     number of regular elements  =            2
    100.0%    current clock (NOT elapsed) time is: 18h 57min 17sec
   layers done

   number of elements (per slice)        =            2
   total number of elements (all slices) =            8


   ...fills global mesh points

   ...checking mesh resolution and time step

 ----------------------------------
   Verification of mesh parameters:
 ----------------------------------
   Region is inner core

   Min Vs =    3.50431156      (km/s)
   Max Vp =    11.1265926      (km/s)

   Max element edge size =    318.584503      (km)
   Min element edge size =    145.520035      (km)
   Max/min ratio =    2.18928266

   Max Jacobian eigenvalue ratio =   0.600322545
   Min Jacobian eigenvalue ratio =   0.452695638

   Minimum period resolved =    51.9282570      (s)
   Minimum period resolved (empirical) =    92.6624374      (s)
   Maximum suggested time step =    1.20000005      (s)

   for DT :   0.115000002      (s)
   Max stability for wave velocities =    5.09225763E-02
 ----------------------------------

   saving vtk mesh files for resolution res_minimum_period...

   ...precomputing Jacobian

   ...creating chunk buffers

 ----- creating chunk buffers -----

 There are            2  slices along xi in each chunk
 There are            2  slices along eta in each chunk
 There is a total of            4  slices in each chunk
 There are            1  chunks
 There is a total of            4  slices in all the chunks

 There is a total of            2  messages to assemble faces between chunks


 only one chunk, no need to create chunk buffers


   ...preparing MPI interfaces

 inner core region:
   #max of points in MPI buffers along xi npoin2D_xi =           45
   #max of array elements transferred npoin2D_xi*NDIM =          135

   #max of points in MPI buffers along eta npoin2D_eta =           45
   #max of array elements transferred npoin2D_eta*NDIM =          135

 inner core MPI:
   maximum interfaces:           3
   MPI addressing maximum interfaces:           3
   MPI addressing : all interfaces okay

   total MPI interface points :          396
   unique MPI interface points:          324
   maximum valence            :            3
   total assembled MPI interface points:         324


   ...element inner/outer separation
 percentage of edge elements in inner core    100.000000     %
 percentage of volume elements in inner core    0.00000000     %


   ...element mesh coloring
   mesh coloring:  F

   ...creating absorbing boundary arrays

   ...creating mass matrix

   ...saving binary files

   ...saving mesh files

 calculated region volume:    3.50772956E-04
                 top area:    9.83539969E-03
              bottom area:    5.70128439E-03

 calculated volume:    8.8663116351438545E-002

 Repartition of elements in regions:
 ----------------------------------

 number of elements in each slice      :          585
 total number of elements in all slices:         2340

  - crust and mantle:    92.3076935      %
  - outer core:    7.35042715      %
  - inner core:   0.341880351      %

 for some mesh statistics, see comments in file OUTPUT_FILES/values_from_mesher.h

 Load balancing = 100 % by definition


 the time step of the solver will be DT =   0.115000002

 using single precision for the calculations

 smallest and largest possible floating-point numbers are:    1.17549435E-38   3.40282347E+38


 Elapsed time for mesh generation and buffer creation in seconds =    4.07790518
 Elapsed time for mesh generation and buffer creation in hh:mm:ss =    0 h 00 m 04 s

 End of mesh generation

