running example: Thu Jan 17 23:14:31 CET 2019
directory: /Users/Shared/SPECFEM3D_GLOBE/EXAMPLES/regional_s40rts
(will take about 2 minutes)


   setting up example...

cleaning all
rm -f  ./obj/shared_par.shared_module.o ./obj/adios_manager.shared_adios_module.o ./obj/auto_ner.shared.o ./obj/binary_c_io.cc.o ./obj/broadcast_computed_parameters.shared.o ./obj/calendar.shared.o ./obj/count_elements.shared.o ./obj/count_number_of_sources.shared.o ./obj/count_points.shared.o ./obj/create_name_database.shared.o ./obj/create_serial_name_database.shared.o ./obj/define_all_layers.shared.o ./obj/euler_angles.shared.o ./obj/exit_mpi.shared.o ./obj/flush_system.shared.o ./obj/get_all_eight_slices.shared.o ./obj/get_global.shared.o ./obj/get_model_parameters.shared.o ./obj/get_timestep_and_layers.shared.o ./obj/gll_library.shared.o ./obj/heap_sort.shared.o ./obj/hex_nodes.shared.o ./obj/init_openmp.shared.o ./obj/interpolate.shared.o ./obj/intgrl.shared.o ./obj/lagrange_poly.shared.o ./obj/make_ellipticity.shared.o ./obj/memory_eval.shared.o ./obj/model_prem.shared.o ./obj/model_topo_bathy.shared.o ./obj/parallel.sharedmpi.o ./obj/param_reader.cc.o ./obj/read_compute_parameters.shared.o ./obj/read_parameter_file.shared.o ./obj/read_value_parameters.shared.o ./obj/recompute_jacobian.shared.o ./obj/reduce.shared.o ./obj/rthetaphi_xyz.shared.o ./obj/save_header_file.shared.o ./obj/search_kdtree.shared.o ./obj/smooth_weights_vec.shared.o ./obj/sort_array_coordinates.shared.o ./obj/spline_routines.shared.o ./obj/write_VTK_file.shared.o ./obj/ylm.shared.o  ./obj/adios_method_stubs.cc.o  ./obj/asdf_method_stubs.cc.o  ./obj/constants.mod ./obj/manager_adios.mod ./obj/manager_adios_par.mod ./obj/my_mpi.mod ./obj/shared_input_parameters.mod ./obj/shared_compute_parameters.mod ./obj/shared_parameters.mod ./obj/kdtree_search.mod  ./obj/shared_par.shared_module.o ./obj/adios_manager.shared_adios_module.o ./obj/auto_ner.shared.o ./obj/binary_c_io.cc.o ./obj/broadcast_computed_parameters.shared.o ./obj/calendar.shared.o ./obj/count_elements.shared.o ./obj/count_number_of_sources.shared.o ./obj/count_points.shared.o ./obj/create_name_database.shared.o ./obj/create_serial_name_database.shared.o ./obj/define_all_layers.shared.o ./obj/euler_angles.shared.o ./obj/exit_mpi.shared.o ./obj/flush_system.shared.o ./obj/get_all_eight_slices.shared.o ./obj/get_global.shared.o ./obj/get_model_parameters.shared.o ./obj/get_timestep_and_layers.shared.o ./obj/gll_library.shared.o ./obj/heap_sort.shared.o ./obj/hex_nodes.shared.o ./obj/init_openmp.shared.o ./obj/interpolate.shared.o ./obj/intgrl.shared.o ./obj/lagrange_poly.shared.o ./obj/make_ellipticity.shared.o ./obj/memory_eval.shared.o ./obj/model_prem.shared.o ./obj/model_topo_bathy.shared.o ./obj/parallel.sharedmpi.o ./obj/param_reader.cc.o ./obj/read_compute_parameters.shared.o ./obj/read_parameter_file.shared.o ./obj/read_value_parameters.shared.o ./obj/recompute_jacobian.shared.o ./obj/reduce.shared.o ./obj/rthetaphi_xyz.shared.o ./obj/save_header_file.shared.o ./obj/search_kdtree.shared.o ./obj/smooth_weights_vec.shared.o ./obj/sort_array_coordinates.shared.o ./obj/spline_routines.shared.o ./obj/write_VTK_file.shared.o ./obj/ylm.shared.o  ./obj/adios_method_stubs.cc.o  ./obj/asdf_method_stubs.cc.o    ./obj/create_header_file.header.o   ./bin/xcreate_header_file ./OUTPUT_FILES/values_from_mesher.h   ./obj/meshfem3D_par.check_module.o ./obj/meshfem3D.check.o ./obj/meshfem3D_models.check.o ./obj/add_missing_nodes.check.o ./obj/add_topography.check.o ./obj/add_topography_410_650.check.o ./obj/add_topography_cmb.check.o ./obj/add_topography_icb.check.o ./obj/assemble_MPI_central_cube_mesh.check.o ./obj/assemble_MPI_scalar_mesh.check.o ./obj/assemble_MPI_vector_mesh.check.o ./obj/calc_jacobian.check.o ./obj/check_mesh_resolution.check.o ./obj/compute_coordinates_grid.check.o ./obj/compute_element_properties.check.o ./obj/compute_volumes_and_areas.check.o ./obj/create_addressing.check.o ./obj/create_central_cube.check.o ./obj/create_central_cube_buffers.check.o ./obj/create_chunk_buffers.check.o ./obj/create_doubling_elements.check.o ./obj/create_mass_matrices.check.o ./obj/create_meshes.check.o ./obj/create_MPI_interfaces.check.o ./obj/create_regions_mesh.check.o ./obj/create_regions_elements.check.o ./obj/create_regular_elements.check.o ./obj/define_superbrick.check.o ./obj/finalize_mesher.check.o ./obj/fix_non_blocking_flags.check.o ./obj/get_absorb.check.o ./obj/get_ellipticity.check.o ./obj/get_jacobian_boundaries.check.o ./obj/get_jacobian_discontinuities.check.o ./obj/get_model.check.o ./obj/get_MPI_1D_buffers.check.o ./obj/get_MPI_cutplanes_eta.check.o ./obj/get_MPI_cutplanes_xi.check.o ./obj/get_MPI_interfaces.check.o ./obj/get_perm_color.check.o ./obj/get_shape2D.check.o ./obj/get_shape3D.check.o ./obj/gravity_integrals.check.o ./obj/initialize_layers.check.o ./obj/initialize_mesher.check.o ./obj/lgndr.check.o ./obj/model_1dref.check.o ./obj/model_1066a.check.o ./obj/model_ak135.check.o ./obj/model_sea1d.check.o ./obj/model_aniso_inner_core.check.o ./obj/model_aniso_mantle.check.o ./obj/model_atten3D_QRFSI12.check.o ./obj/model_attenuation.check.o ./obj/model_crust_1_0.check.o ./obj/model_crust_2_0.check.o ./obj/model_crustmaps.check.o ./obj/model_eucrust.check.o ./obj/model_epcrust.check.o ./obj/model_full_sh.check.o ./obj/model_gapp2.check.o ./obj/model_gll.check.o ./obj/model_heterogen_mantle.check.o ./obj/model_iasp91.check.o ./obj/model_jp1d.check.o ./obj/model_jp3d.check.o ./obj/model_ppm.check.o ./obj/model_s20rts.check.o ./obj/model_s40rts.check.o ./obj/model_s362ani.check.o ./obj/model_sea99_s.check.o ./obj/model_sglobe.check.o ./obj/moho_stretching.check.o ./obj/save_arrays_solver.check.o ./obj/setup_color_perm.check.o ./obj/setup_counters.check.o ./obj/setup_inner_outer.check.o ./obj/setup_model.check.o ./obj/setup_MPI_interfaces.check.o ./obj/stretching_function.check.o ./obj/test_MPI_interfaces.check.o ./obj/write_AVS_DX_global_chunks_data.check.o ./obj/write_AVS_DX_global_data.check.o ./obj/write_AVS_DX_global_faces_data.check.o ./obj/write_AVS_DX_output.check.o ./obj/write_AVS_DX_surface_data.check.o  ./obj/regions_mesh_par.mod ./obj/regions_mesh_par2.mod ./obj/mpi_interfaces_par.mod ./obj/gapp2_mantle_model_constants.mod ./obj/manager_adios_par.mod ./obj/meshfem3d_models_par.mod ./obj/meshfem3d_par.mod ./obj/mpi_crust_mantle_par.mod ./obj/mpi_inner_core_par.mod ./obj/mpi_outer_core_par.mod ./obj/model_1066a_par.mod ./obj/model_1dref_par.mod ./obj/model_ak135_par.mod ./obj/model_aniso_mantle_par.mod ./obj/model_atten3d_qrfsi12_par.mod ./obj/model_crust_1_0_par.mod ./obj/model_crust_2_0_par.mod ./obj/model_crustmaps_par.mod ./obj/model_epcrust_par.mod ./obj/model_eucrust_par.mod ./obj/model_full_sh_crust_par.mod ./obj/model_full_sh_mantle_par.mod ./obj/model_gll_par.mod ./obj/model_heterogen_mantle_par.mod ./obj/model_jp3d_par.mod ./obj/model_ppm_par.mod ./obj/model_s20rts_par.mod ./obj/model_s362ani_par.mod ./obj/model_s40rts_par.mod ./obj/model_sea1d_par.mod ./obj/model_sea99_s_par.mod ./obj/model_sglobe_par.mod ./obj/avs_dx_global_chunks_mod.mod ./obj/avs_dx_global_mod.mod ./obj/avs_dx_global_faces_mod.mod ./obj/avs_dx_surface_mod.mod  ./bin/xmeshfem3D   ./obj/assemble_MPI_scalar.solver.o ./obj/assemble_MPI_vector.solver.o ./obj/comp_source_spectrum.solver.o ./obj/compute_adj_source_frechet.solver.o ./obj/convert_time.solver.o ./obj/define_derivation_matrices.solver.o ./obj/file_io_threads.cc.o ./obj/force_ftz.cc.o ./obj/get_backazimuth.solver.o ./obj/get_cmt.solver.o ./obj/get_force.solver.o ./obj/get_event_info.solver.o ./obj/make_gravity.solver.o ./obj/netlib_specfun_erf.solver.o  ./obj/asdf_data.solverstatic_module.o ./obj/comp_source_time_function.solverstatic.o ./obj/specfem3D_par.solverstatic_module.o ./obj/write_seismograms.solverstatic.o ./obj/check_stability.solverstatic.o ./obj/compute_add_sources.solverstatic.o ./obj/compute_arrays_source.solverstatic.o ./obj/compute_boundary_kernel.solverstatic.o ./obj/compute_coupling.solverstatic.o ./obj/compute_element.solverstatic.o ./obj/compute_element_att_memory.solverstatic.o ./obj/compute_element_strain.solverstatic.o ./obj/compute_forces_acoustic_calling_routine.solverstatic.o ./obj/compute_forces_viscoelastic_calling_routine.solverstatic.o ./obj/compute_forces_crust_mantle_noDev.solverstatic.o ./obj/compute_forces_crust_mantle_Dev.solverstatic.o ./obj/compute_forces_inner_core_noDev.solverstatic.o ./obj/compute_forces_inner_core_Dev.solverstatic.o ./obj/compute_forces_outer_core_noDev.solverstatic.o ./obj/compute_forces_outer_core_Dev.solverstatic.o ./obj/compute_kernels.solverstatic.o ./obj/compute_seismograms.solverstatic.o ./obj/compute_stacey_crust_mantle.solverstatic.o ./obj/compute_stacey_outer_core.solverstatic.o ./obj/finalize_simulation.solverstatic.o ./obj/get_attenuation.solverstatic.o ./obj/initialize_simulation.solverstatic.o ./obj/iterate_time.solverstatic.o ./obj/iterate_time_undoatt.solverstatic.o ./obj/locate_receivers.solverstatic.o ./obj/locate_regular_points.solverstatic.o ./obj/locate_sources.solverstatic.o ./obj/multiply_arrays_source.solverstatic.o ./obj/noise_tomography.solverstatic.o ./obj/prepare_attenuation.solverstatic.o ./obj/prepare_elastic_elements.solverstatic.o ./obj/prepare_gpu.solverstatic.o ./obj/prepare_gravity.solverstatic.o ./obj/prepare_movie.solverstatic.o ./obj/prepare_noise.solverstatic.o ./obj/prepare_oceans.solverstatic.o ./obj/prepare_optimized_arrays.solverstatic.o ./obj/prepare_stacey.solverstatic.o ./obj/prepare_timerun.solverstatic.o ./obj/prepare_vtk_window.solverstatic.o ./obj/prepare_wavefields.solverstatic.o ./obj/print_stf_file.solverstatic.o ./obj/read_adjoint_sources.solverstatic.o ./obj/read_arrays_solver.solverstatic.o ./obj/read_forward_arrays.solverstatic.o ./obj/read_mesh_databases.solverstatic.o ./obj/read_topography_bathymetry.solverstatic.o ./obj/save_forward_arrays.solverstatic.o ./obj/save_kernels.solverstatic.o ./obj/save_regular_kernels.solverstatic.o ./obj/setup_GLL_points.solverstatic.o ./obj/setup_sources_receivers.solverstatic.o ./obj/specfem3D.solverstatic.o ./obj/update_displacement_LDDRK.solverstatic.o ./obj/update_displacement_Newmark.solverstatic.o ./obj/write_movie_output.solverstatic.o ./obj/write_movie_volume.solverstatic.o ./obj/write_movie_surface.solverstatic.o ./obj/write_output_ASCII.solverstatic.o ./obj/write_output_SAC.solverstatic.o  ./obj/specfem3D_gpu_method_stubs.cc.o   ./obj/visual_vtk_stubs.visualc.o  ./obj/asdf_data.mod ./obj/constants_solver.mod ./obj/manager_adios_par.mod ./obj/specfem_par.mod ./obj/specfem_par_crustmantle.mod ./obj/specfem_par_innercore.mod ./obj/specfem_par_outercore.mod ./obj/specfem_par_noise.mod ./obj/specfem_par_movie.mod  ./bin/xspecfem3D   ./obj/convolve_source_timefunction.aux.o  ./obj/detect_duplicates_stations_file.aux.o  ./obj/combine_AVS_DX.aux.o ./obj/get_cmt.solver.o  ./obj/combine_paraview_strain_data.auxsolver.o  ./obj/combine_surf_data.auxsolver.o  ./obj/combine_vol_data.auxsolver.o  ./obj/combine_vol_data.auxadios.o ./obj/combine_vol_data_adios_impl.auxmpi.o  ./obj/combine_vol_data.auxsolver_vtk.o  ./obj/combine_vol_data.auxadios_vtk.o ./obj/combine_vol_data_adios_impl.auxmpi.o  ./obj/create_movie_AVS_DX.aux.o  ./obj/create_movie_GMT_global.aux.o  ./obj/extract_database.aux.o  ./obj/write_profile.aux.o  ./obj/get_model.check.o ./obj/lgndr.check.o ./obj/meshfem3D_models.check.o ./obj/meshfem3D_par.check_module.o ./obj/model_1dref.check.o ./obj/model_1066a.check.o ./obj/model_ak135.check.o ./obj/model_sea1d.check.o ./obj/model_aniso_inner_core.check.o ./obj/model_aniso_mantle.check.o ./obj/model_atten3D_QRFSI12.check.o ./obj/model_attenuation.check.o ./obj/model_crust_1_0.check.o ./obj/model_crust_2_0.check.o ./obj/model_crustmaps.check.o ./obj/model_eucrust.check.o ./obj/model_epcrust.check.o ./obj/model_full_sh.check.o ./obj/model_gapp2.check.o ./obj/model_gll.check.o ./obj/model_heterogen_mantle.check.o ./obj/model_iasp91.check.o ./obj/model_jp1d.check.o ./obj/model_jp3d.check.o ./obj/model_ppm.check.o ./obj/model_s20rts.check.o ./obj/model_s40rts.check.o ./obj/model_s362ani.check.o ./obj/model_sea99_s.check.o ./obj/model_sglobe.check.o    ./bin/xconvolve_source_timefunction ./bin/xdetect_duplicates_stations_file ./bin/xcombine_AVS_DX ./bin/xcombine_paraview_strain_data ./bin/xcombine_vol_data ./bin/xcombine_vol_data_vtk ./bin/xcombine_surf_data ./bin/xcreate_movie_AVS_DX ./bin/xcreate_movie_GMT_global ./bin/xextract_database ./bin/xwrite_profile   ./obj/postprocess_par.postprocess_module.o ./obj/addition_sem.postprocess.o  ./obj/postprocess_par.postprocess_module.o ./obj/parse_kernel_names.postprocess.o ./obj/clip_sem.postprocess.o  ./obj/postprocess_par.postprocess_module.o ./obj/parse_kernel_names.postprocess.o ./obj/combine_sem.postprocess.o  ./obj/postprocess_par.postprocess_module.o ./obj/difference_sem.postprocess.o  ./obj/postprocess_par.postprocess_module.o ./obj/interpolate_model.postprocess.o  ./obj/postprocess_par.postprocess_module.o ./obj/create_cross_section.postprocess.o ./obj/parse_kernel_names.postprocess.o  ./obj/postprocess_par.postprocess_module.o ./obj/parse_kernel_names.postprocess.o ./obj/smooth_sem.postprocess.o  ./obj/convert_model_file_adios.postprocess_adios.o   ./obj/postprocess_par.mod  ./bin/xaddition_sem ./bin/xclip_sem ./bin/xcombine_sem ./bin/xdifference_sem ./bin/xinterpolate_model ./bin/xcreate_cross_section ./bin/xsmooth_sem   ./obj/add_model_iso.tomo.o ./obj/tomography_par.tomo_module.o ./obj/compute_kernel_integral.tomo.o ./obj/get_cg_direction.tomo.o ./obj/get_sd_direction.tomo.o ./obj/read_kernels.tomo.o ./obj/read_kernels_cg.tomo.o ./obj/read_model.tomo.o ./obj/read_parameters_tomo.tomo.o ./obj/write_gradient.tomo.o ./obj/write_new_model.tomo.o ./obj/write_new_model_perturbations.tomo.o   ./obj/add_model_tiso.tomo.o ./obj/tomography_par.tomo_module.o ./obj/compute_kernel_integral.tomo.o ./obj/get_cg_direction.tomo.o ./obj/get_sd_direction.tomo.o ./obj/read_kernels.tomo.o ./obj/read_kernels_cg.tomo.o ./obj/read_model.tomo.o ./obj/read_parameters_tomo.tomo.o ./obj/write_gradient.tomo.o ./obj/write_new_model.tomo.o ./obj/write_new_model_perturbations.tomo.o   ./obj/add_model_tiso_cg.tomo.o ./obj/tomography_par.tomo_module.o ./obj/compute_kernel_integral.tomo.o ./obj/get_cg_direction.tomo.o ./obj/get_sd_direction.tomo.o ./obj/read_kernels.tomo.o ./obj/read_kernels_cg.tomo.o ./obj/read_model.tomo.o ./obj/read_parameters_tomo.tomo.o ./obj/write_gradient.tomo.o ./obj/write_new_model.tomo.o ./obj/write_new_model_perturbations.tomo.o   ./obj/add_model_tiso_iso.tomo.o ./obj/tomography_par.tomo_module.o ./obj/compute_kernel_integral.tomo.o ./obj/get_cg_direction.tomo.o ./obj/get_sd_direction.tomo.o ./obj/read_kernels.tomo.o ./obj/read_kernels_cg.tomo.o ./obj/read_model.tomo.o ./obj/read_parameters_tomo.tomo.o ./obj/write_gradient.tomo.o ./obj/write_new_model.tomo.o ./obj/write_new_model_perturbations.tomo.o   ./obj/tomography_par.tomo_module.o ./obj/sum_kernels.tomo.o  ./obj/tomography_par.tomo_module.o ./obj/sum_preconditioned_kernels.tomo.o   ./obj/tomography_par.mod ./obj/tomography_kernels_iso.mod ./obj/tomography_kernels_tiso.mod ./obj/tomography_kernels_tiso_cg.mod ./obj/tomography_model_tiso.mod ./obj/tomography_model_iso.mod  ./bin/xadd_model_iso ./bin/xadd_model_tiso ./bin/xadd_model_tiso_cg ./bin/xadd_model_tiso_iso ./bin/xsum_kernels ./bin/xsum_preconditioned_kernels 
rm -f ./bin/*__genmod.*
rm -f ./obj/*__genmod.*
gfortran  -O3 -std=gnu -Wall -Wno-conversion -Wno-maybe-uninitialized -DFORCE_VECTORIZATION -J./obj -I./obj -I.  -I. -I./setup -c -o obj/shared_par.shared_module.o src/shared/shared_par.f90
gcc -c -I./setup  -DFORCE_VECTORIZATION -O3 -Wall -std=c99 -o obj/param_reader.cc.o src/shared/param_reader.c
gcc -c -I./setup  -DFORCE_VECTORIZATION -O3 -Wall -std=c99 -o obj/binary_c_io.cc.o src/shared/binary_c_io.c
gcc -c -I./setup  -DFORCE_VECTORIZATION -O3 -Wall -std=c99 -o obj/adios_method_stubs.cc.o src/shared/adios_method_stubs.c
gcc -c -I./setup  -DFORCE_VECTORIZATION -O3 -Wall -std=c99 -o obj/file_io_threads.cc.o src/specfem3D/file_io_threads.c
gcc -c -I./setup  -DFORCE_VECTORIZATION -O3 -Wall -std=c99 -o obj/force_ftz.cc.o src/specfem3D/force_ftz.c
gfortran  -O3 -std=gnu -Wall -Wno-conversion -Wno-maybe-uninitialized -DFORCE_VECTORIZATION -J./obj -I./obj -I.  -I. -I./setup -c -o obj/get_backazimuth.solver.o src/specfem3D/get_backazimuth.f90
gfortran  -O3 -std=gnu -Wall -Wno-conversion -Wno-maybe-uninitialized -DFORCE_VECTORIZATION -J./obj -I./obj -I.  -I. -I./setup -c -o obj/get_cmt.solver.o src/specfem3D/get_cmt.f90
gfortran  -O3 -std=gnu -Wall -Wno-conversion -Wno-maybe-uninitialized -DFORCE_VECTORIZATION -J./obj -I./obj -I.  -I. -I./setup -c -o obj/get_force.solver.o src/specfem3D/get_force.f90
gfortran  -O3 -std=gnu -Wall -Wno-conversion -Wno-maybe-uninitialized -DFORCE_VECTORIZATION -J./obj -I./obj -I.  -I. -I./setup -c -o obj/get_event_info.solver.o src/specfem3D/get_event_info.f90
gfortran  -O3 -std=gnu -Wall -Wno-conversion -Wno-maybe-uninitialized -DFORCE_VECTORIZATION -J./obj -I./obj -I.  -I. -I./setup -c -o obj/make_gravity.solver.o src/specfem3D/make_gravity.f90
gfortran  -O3 -std=gnu -Wall -Wno-conversion -Wno-maybe-uninitialized -DFORCE_VECTORIZATION -J./obj -I./obj -I.  -I. -I./setup -c -o obj/netlib_specfun_erf.solver.o src/specfem3D/netlib_specfun_erf.f90
gcc -c -I./setup  -DFORCE_VECTORIZATION -O3 -Wall -std=c99 -o obj/specfem3D_gpu_method_stubs.cc.o src/specfem3D/specfem3D_gpu_method_stubs.c
gcc -c -I./setup  -DFORCE_VECTORIZATION  -o obj/visual_vtk_stubs.visualc.o src/specfem3D/visual_vtk_stubs.c
gfortran  -O3 -std=gnu -Wall -Wno-conversion -Wno-maybe-uninitialized -DFORCE_VECTORIZATION -J./obj -I./obj -I.  -I. -I./setup -c -o obj/calendar.shared.o src/shared/calendar.f90
gfortran  -O3 -std=gnu -Wall -Wno-conversion -Wno-maybe-uninitialized -DFORCE_VECTORIZATION -J./obj -I./obj -I.  -I. -I./setup -c -o obj/recompute_jacobian.shared.o src/shared/recompute_jacobian.f90
gcc -c -I./setup  -DFORCE_VECTORIZATION -O3 -Wall -std=c99 -o obj/asdf_method_stubs.cc.o src/shared/asdf_method_stubs.c
gfortran  -O3 -std=gnu -Wall -Wno-conversion -Wno-maybe-uninitialized -DFORCE_VECTORIZATION -J./obj -I./obj -I.  -I. -I./setup -c -o obj/create_serial_name_database.shared.o src/shared/create_serial_name_database.f90
gfortran  -O3 -std=gnu -Wall -Wno-conversion -Wno-maybe-uninitialized -DFORCE_VECTORIZATION -J./obj -I./obj -I.  -I. -I./setup -c -o obj/search_kdtree.shared.o src/shared/search_kdtree.f90
gfortran  -O3 -std=gnu -Wall -Wno-conversion -Wno-maybe-uninitialized -DFORCE_VECTORIZATION -J./obj -I./obj -I.  -I. -I./setup -c -o obj/interpolate.shared.o src/shared/interpolate.f90
gfortran  -O3 -std=gnu -Wall -Wno-conversion -Wno-maybe-uninitialized -DFORCE_VECTORIZATION -J./obj -I./obj -I.  -I. -I./setup -c -o obj/auto_ner.shared.o src/shared/auto_ner.f90
gfortran  -O3 -std=gnu -Wall -Wno-conversion -Wno-maybe-uninitialized -DFORCE_VECTORIZATION -J./obj -I./obj -I.  -I. -I./setup -c -o obj/count_elements.shared.o src/shared/count_elements.f90
gfortran  -O3 -std=gnu -Wall -Wno-conversion -Wno-maybe-uninitialized -DFORCE_VECTORIZATION -J./obj -I./obj -I.  -I. -I./setup -c -o obj/count_number_of_sources.shared.o src/shared/count_number_of_sources.f90
gfortran  -O3 -std=gnu -Wall -Wno-conversion -Wno-maybe-uninitialized -DFORCE_VECTORIZATION -J./obj -I./obj -I.  -I. -I./setup -c -o obj/count_points.shared.o src/shared/count_points.f90
gfortran  -O3 -std=gnu -Wall -Wno-conversion -Wno-maybe-uninitialized -DFORCE_VECTORIZATION -J./obj -I./obj -I.  -I. -I./setup -c -o obj/define_all_layers.shared.o src/shared/define_all_layers.f90
gfortran  -O3 -std=gnu -Wall -Wno-conversion -Wno-maybe-uninitialized -DFORCE_VECTORIZATION -J./obj -I./obj -I.  -I. -I./setup -c -o obj/euler_angles.shared.o src/shared/euler_angles.f90
gfortran  -O3 -std=gnu -Wall -Wno-conversion -Wno-maybe-uninitialized -DFORCE_VECTORIZATION -J./obj -I./obj -I.  -I. -I./setup -c -o obj/get_model_parameters.shared.o src/shared/get_model_parameters.F90
gfortran  -O3 -std=gnu -Wall -Wno-conversion -Wno-maybe-uninitialized -DFORCE_VECTORIZATION -J./obj -I./obj -I.  -I. -I./setup -c -o obj/get_timestep_and_layers.shared.o src/shared/get_timestep_and_layers.f90
gfortran  -O3 -std=gnu -Wall -Wno-conversion -Wno-maybe-uninitialized -DFORCE_VECTORIZATION -J./obj -I./obj -I.  -I. -I./setup -c -o obj/memory_eval.shared.o src/shared/memory_eval.f90
gfortran  -O3 -std=gnu -Wall -Wno-conversion -Wno-maybe-uninitialized -DFORCE_VECTORIZATION -J./obj -I./obj -I.  -I. -I./setup -c -o obj/read_compute_parameters.shared.o src/shared/read_compute_parameters.f90
gfortran  -O3 -std=gnu -Wall -Wno-conversion -Wno-maybe-uninitialized -DFORCE_VECTORIZATION -J./obj -I./obj -I.  -I. -I./setup -c -o obj/read_parameter_file.shared.o src/shared/read_parameter_file.f90
gfortran  -O3 -std=gnu -Wall -Wno-conversion -Wno-maybe-uninitialized -DFORCE_VECTORIZATION -J./obj -I./obj -I.  -I. -I./setup -c -o obj/read_value_parameters.shared.o src/shared/read_value_parameters.f90
gfortran  -O3 -std=gnu -Wall -Wno-conversion -Wno-maybe-uninitialized -DFORCE_VECTORIZATION -J./obj -I./obj -I.  -I. -I./setup -c -o obj/reduce.shared.o src/shared/reduce.f90
gfortran  -O3 -std=gnu -Wall -Wno-conversion -Wno-maybe-uninitialized -DFORCE_VECTORIZATION -J./obj -I./obj -I.  -I. -I./setup -c -o obj/rthetaphi_xyz.shared.o src/shared/rthetaphi_xyz.f90
gfortran  -O3 -std=gnu -Wall -Wno-conversion -Wno-maybe-uninitialized -DFORCE_VECTORIZATION -J./obj -I./obj -I.  -I. -I./setup -c -o obj/save_header_file.shared.o src/shared/save_header_file.F90
gfortran  -O3 -std=gnu -Wall -Wno-conversion -Wno-maybe-uninitialized -DFORCE_VECTORIZATION -J./obj -I./obj -I.  -I. -I./setup -c -o obj/create_header_file.header.o src/create_header_file/create_header_file.f90
gfortran  -O3 -std=gnu -Wall -Wno-conversion -Wno-maybe-uninitialized -DFORCE_VECTORIZATION -J./obj -I./obj -I.  -I. -I./setup -c -o obj/adios_manager.shared_adios_module.o src/shared/adios_manager.F90
gfortran  -O3 -std=gnu -Wall -Wno-conversion -Wno-maybe-uninitialized -DFORCE_VECTORIZATION -J./obj -I./obj -I.  -I. -I./setup -c -o obj/broadcast_computed_parameters.shared.o src/shared/broadcast_computed_parameters.f90
gfortran  -O3 -std=gnu -Wall -Wno-conversion -Wno-maybe-uninitialized -DFORCE_VECTORIZATION -J./obj -I./obj -I.  -I. -I./setup -c -o obj/create_name_database.shared.o src/shared/create_name_database.f90
gfortran  -O3 -std=gnu -Wall -Wno-conversion -Wno-maybe-uninitialized -DFORCE_VECTORIZATION -J./obj -I./obj -I.  -I. -I./setup -c -o obj/exit_mpi.shared.o src/shared/exit_mpi.f90
gfortran  -O3 -std=gnu -Wall -Wno-conversion -Wno-maybe-uninitialized -DFORCE_VECTORIZATION -J./obj -I./obj -I.  -I. -I./setup -c -o obj/flush_system.shared.o src/shared/flush_system.f90
gfortran  -O3 -std=gnu -Wall -Wno-conversion -Wno-maybe-uninitialized -DFORCE_VECTORIZATION -J./obj -I./obj -I.  -I. -I./setup -c -o obj/get_all_eight_slices.shared.o src/shared/get_all_eight_slices.f90
gfortran  -O3 -std=gnu -Wall -Wno-conversion -Wno-maybe-uninitialized -DFORCE_VECTORIZATION -J./obj -I./obj -I.  -I. -I./setup -c -o obj/get_global.shared.o src/shared/get_global.f90
gfortran  -O3 -std=gnu -Wall -Wno-conversion -Wno-maybe-uninitialized -DFORCE_VECTORIZATION -J./obj -I./obj -I.  -I. -I./setup -c -o obj/gll_library.shared.o src/shared/gll_library.f90
gfortran  -O3 -std=gnu -Wall -Wno-conversion -Wno-maybe-uninitialized -DFORCE_VECTORIZATION -J./obj -I./obj -I.  -I. -I./setup -c -o obj/heap_sort.shared.o src/shared/heap_sort.f90
gfortran  -O3 -std=gnu -Wall -Wno-conversion -Wno-maybe-uninitialized -DFORCE_VECTORIZATION -J./obj -I./obj -I.  -I. -I./setup -c -o obj/hex_nodes.shared.o src/shared/hex_nodes.f90
gfortran  -O3 -std=gnu -Wall -Wno-conversion -Wno-maybe-uninitialized -DFORCE_VECTORIZATION -J./obj -I./obj -I.  -I. -I./setup -c -o obj/init_openmp.shared.o src/shared/init_openmp.F90
gfortran  -O3 -std=gnu -Wall -Wno-conversion -Wno-maybe-uninitialized -DFORCE_VECTORIZATION -J./obj -I./obj -I.  -I. -I./setup -c -o obj/intgrl.shared.o src/shared/intgrl.f90
gfortran  -O3 -std=gnu -Wall -Wno-conversion -Wno-maybe-uninitialized -DFORCE_VECTORIZATION -J./obj -I./obj -I.  -I. -I./setup -c -o obj/lagrange_poly.shared.o src/shared/lagrange_poly.f90
gfortran  -O3 -std=gnu -Wall -Wno-conversion -Wno-maybe-uninitialized -DFORCE_VECTORIZATION -J./obj -I./obj -I.  -I. -I./setup -c -o obj/make_ellipticity.shared.o src/shared/make_ellipticity.f90
gfortran  -O3 -std=gnu -Wall -Wno-conversion -Wno-maybe-uninitialized -DFORCE_VECTORIZATION -J./obj -I./obj -I.  -I. -I./setup -c -o obj/model_prem.shared.o src/shared/model_prem.f90
gfortran  -O3 -std=gnu -Wall -Wno-conversion -Wno-maybe-uninitialized -DFORCE_VECTORIZATION -J./obj -I./obj -I.  -I. -I./setup -c -o obj/model_topo_bathy.shared.o src/shared/model_topo_bathy.f90
mpif90  -O3 -std=gnu -Wall -Wno-conversion -Wno-maybe-uninitialized -DFORCE_VECTORIZATION -J./obj -I./obj -I.  -I. -I./setup -c -o obj/parallel.sharedmpi.o src/shared/parallel.f90
gfortran  -O3 -std=gnu -Wall -Wno-conversion -Wno-maybe-uninitialized -DFORCE_VECTORIZATION -J./obj -I./obj -I.  -I. -I./setup -c -o obj/smooth_weights_vec.shared.o src/shared/smooth_weights_vec.F90
gfortran  -O3 -std=gnu -Wall -Wno-conversion -Wno-maybe-uninitialized -DFORCE_VECTORIZATION -J./obj -I./obj -I.  -I. -I./setup -c -o obj/sort_array_coordinates.shared.o src/shared/sort_array_coordinates.f90
gfortran  -O3 -std=gnu -Wall -Wno-conversion -Wno-maybe-uninitialized -DFORCE_VECTORIZATION -J./obj -I./obj -I.  -I. -I./setup -c -o obj/spline_routines.shared.o src/shared/spline_routines.f90
gfortran  -O3 -std=gnu -Wall -Wno-conversion -Wno-maybe-uninitialized -DFORCE_VECTORIZATION -J./obj -I./obj -I.  -I. -I./setup -c -o obj/write_VTK_file.shared.o src/shared/write_VTK_file.f90
gfortran  -O3 -std=gnu -Wall -Wno-conversion -Wno-maybe-uninitialized -DFORCE_VECTORIZATION -J./obj -I./obj -I.  -I. -I./setup -c -o obj/ylm.shared.o src/shared/ylm.f90
gfortran  -O3 -std=gnu -Wall -Wno-conversion -Wno-maybe-uninitialized -DFORCE_VECTORIZATION -J./obj -I./obj -I.  -I. -I./setup -c -o obj/meshfem3D_par.check_module.o src/meshfem3D/meshfem3D_par.f90
gfortran  -O3 -std=gnu -Wall -Wno-conversion -Wno-maybe-uninitialized -DFORCE_VECTORIZATION -J./obj -I./obj -I.  -I. -I./setup -c -o obj/assemble_MPI_scalar.solver.o src/specfem3D/assemble_MPI_scalar.f90
gfortran  -O3 -std=gnu -Wall -Wno-conversion -Wno-maybe-uninitialized -DFORCE_VECTORIZATION -J./obj -I./obj -I.  -I. -I./setup -c -o obj/assemble_MPI_vector.solver.o src/specfem3D/assemble_MPI_vector.f90
gfortran  -O3 -std=gnu -Wall -Wno-conversion -Wno-maybe-uninitialized -DFORCE_VECTORIZATION -J./obj -I./obj -I.  -I. -I./setup -c -o obj/comp_source_spectrum.solver.o src/specfem3D/comp_source_spectrum.f90
gfortran  -O3 -std=gnu -Wall -Wno-conversion -Wno-maybe-uninitialized -DFORCE_VECTORIZATION -J./obj -I./obj -I.  -I. -I./setup -c -o obj/compute_adj_source_frechet.solver.o src/specfem3D/compute_adj_source_frechet.f90
gfortran  -O3 -std=gnu -Wall -Wno-conversion -Wno-maybe-uninitialized -DFORCE_VECTORIZATION -J./obj -I./obj -I.  -I. -I./setup -c -o obj/convert_time.solver.o src/specfem3D/convert_time.f90
gfortran  -O3 -std=gnu -Wall -Wno-conversion -Wno-maybe-uninitialized -DFORCE_VECTORIZATION -J./obj -I./obj -I.  -I. -I./setup -c -o obj/define_derivation_matrices.solver.o src/specfem3D/define_derivation_matrices.f90
gfortran  -O3 -std=gnu -Wall -Wno-conversion -Wno-maybe-uninitialized -DFORCE_VECTORIZATION -o bin/xcreate_header_file obj/shared_par.shared_module.o obj/auto_ner.shared.o obj/count_elements.shared.o obj/count_number_of_sources.shared.o obj/count_points.shared.o obj/define_all_layers.shared.o obj/euler_angles.shared.o obj/get_model_parameters.shared.o obj/get_timestep_and_layers.shared.o obj/memory_eval.shared.o obj/param_reader.cc.o obj/read_compute_parameters.shared.o obj/read_parameter_file.shared.o obj/read_value_parameters.shared.o obj/reduce.shared.o obj/rthetaphi_xyz.shared.o obj/save_header_file.shared.o obj/create_header_file.header.o
gfortran  -O3 -std=gnu -Wall -Wno-conversion -Wno-maybe-uninitialized -DFORCE_VECTORIZATION -J./obj -I./obj -I.  -I. -I./setup -c -o obj/meshfem3D.check.o src/meshfem3D/meshfem3D.f90
gfortran  -O3 -std=gnu -Wall -Wno-conversion -Wno-maybe-uninitialized -DFORCE_VECTORIZATION -J./obj -I./obj -I.  -I. -I./setup -c -o obj/meshfem3D_models.check.o src/meshfem3D/meshfem3D_models.F90
gfortran  -O3 -std=gnu -Wall -Wno-conversion -Wno-maybe-uninitialized -DFORCE_VECTORIZATION -J./obj -I./obj -I.  -I. -I./setup -c -o obj/add_missing_nodes.check.o src/meshfem3D/add_missing_nodes.f90
gfortran  -O3 -std=gnu -Wall -Wno-conversion -Wno-maybe-uninitialized -DFORCE_VECTORIZATION -J./obj -I./obj -I.  -I. -I./setup -c -o obj/add_topography.check.o src/meshfem3D/add_topography.f90
gfortran  -O3 -std=gnu -Wall -Wno-conversion -Wno-maybe-uninitialized -DFORCE_VECTORIZATION -J./obj -I./obj -I.  -I. -I./setup -c -o obj/add_topography_410_650.check.o src/meshfem3D/add_topography_410_650.f90
gfortran  -O3 -std=gnu -Wall -Wno-conversion -Wno-maybe-uninitialized -DFORCE_VECTORIZATION -J./obj -I./obj -I.  -I. -I./setup -c -o obj/add_topography_cmb.check.o src/meshfem3D/add_topography_cmb.f90
gfortran  -O3 -std=gnu -Wall -Wno-conversion -Wno-maybe-uninitialized -DFORCE_VECTORIZATION -J./obj -I./obj -I.  -I. -I./setup -c -o obj/add_topography_icb.check.o src/meshfem3D/add_topography_icb.f90
gfortran  -O3 -std=gnu -Wall -Wno-conversion -Wno-maybe-uninitialized -DFORCE_VECTORIZATION -J./obj -I./obj -I.  -I. -I./setup -c -o obj/assemble_MPI_central_cube_mesh.check.o src/meshfem3D/assemble_MPI_central_cube_mesh.f90
gfortran  -O3 -std=gnu -Wall -Wno-conversion -Wno-maybe-uninitialized -DFORCE_VECTORIZATION -J./obj -I./obj -I.  -I. -I./setup -c -o obj/assemble_MPI_scalar_mesh.check.o src/meshfem3D/assemble_MPI_scalar_mesh.f90
gfortran  -O3 -std=gnu -Wall -Wno-conversion -Wno-maybe-uninitialized -DFORCE_VECTORIZATION -J./obj -I./obj -I.  -I. -I./setup -c -o obj/assemble_MPI_vector_mesh.check.o src/meshfem3D/assemble_MPI_vector_mesh.f90
gfortran  -O3 -std=gnu -Wall -Wno-conversion -Wno-maybe-uninitialized -DFORCE_VECTORIZATION -J./obj -I./obj -I.  -I. -I./setup -c -o obj/calc_jacobian.check.o src/meshfem3D/calc_jacobian.f90
gfortran  -O3 -std=gnu -Wall -Wno-conversion -Wno-maybe-uninitialized -DFORCE_VECTORIZATION -J./obj -I./obj -I.  -I. -I./setup -c -o obj/check_mesh_resolution.check.o src/meshfem3D/check_mesh_resolution.f90
gfortran  -O3 -std=gnu -Wall -Wno-conversion -Wno-maybe-uninitialized -DFORCE_VECTORIZATION -J./obj -I./obj -I.  -I. -I./setup -c -o obj/compute_coordinates_grid.check.o src/meshfem3D/compute_coordinates_grid.f90
gfortran  -O3 -std=gnu -Wall -Wno-conversion -Wno-maybe-uninitialized -DFORCE_VECTORIZATION -J./obj -I./obj -I.  -I. -I./setup -c -o obj/compute_element_properties.check.o src/meshfem3D/compute_element_properties.f90
gfortran  -O3 -std=gnu -Wall -Wno-conversion -Wno-maybe-uninitialized -DFORCE_VECTORIZATION -J./obj -I./obj -I.  -I. -I./setup -c -o obj/compute_volumes_and_areas.check.o src/meshfem3D/compute_volumes_and_areas.F90
gfortran  -O3 -std=gnu -Wall -Wno-conversion -Wno-maybe-uninitialized -DFORCE_VECTORIZATION -J./obj -I./obj -I.  -I. -I./setup -c -o obj/create_addressing.check.o src/meshfem3D/create_addressing.f90
gfortran  -O3 -std=gnu -Wall -Wno-conversion -Wno-maybe-uninitialized -DFORCE_VECTORIZATION -J./obj -I./obj -I.  -I. -I./setup -c -o obj/create_central_cube.check.o src/meshfem3D/create_central_cube.f90
gfortran  -O3 -std=gnu -Wall -Wno-conversion -Wno-maybe-uninitialized -DFORCE_VECTORIZATION -J./obj -I./obj -I.  -I. -I./setup -c -o obj/create_central_cube_buffers.check.o src/meshfem3D/create_central_cube_buffers.f90
gfortran  -O3 -std=gnu -Wall -Wno-conversion -Wno-maybe-uninitialized -DFORCE_VECTORIZATION -J./obj -I./obj -I.  -I. -I./setup -c -o obj/create_chunk_buffers.check.o src/meshfem3D/create_chunk_buffers.f90
gfortran  -O3 -std=gnu -Wall -Wno-conversion -Wno-maybe-uninitialized -DFORCE_VECTORIZATION -J./obj -I./obj -I.  -I. -I./setup -c -o obj/create_doubling_elements.check.o src/meshfem3D/create_doubling_elements.f90
gfortran  -O3 -std=gnu -Wall -Wno-conversion -Wno-maybe-uninitialized -DFORCE_VECTORIZATION -J./obj -I./obj -I.  -I. -I./setup -c -o obj/create_mass_matrices.check.o src/meshfem3D/create_mass_matrices.f90
gfortran  -O3 -std=gnu -Wall -Wno-conversion -Wno-maybe-uninitialized -DFORCE_VECTORIZATION -J./obj -I./obj -I.  -I. -I./setup -c -o obj/create_meshes.check.o src/meshfem3D/create_meshes.f90
gfortran  -O3 -std=gnu -Wall -Wno-conversion -Wno-maybe-uninitialized -DFORCE_VECTORIZATION -J./obj -I./obj -I.  -I. -I./setup -c -o obj/create_MPI_interfaces.check.o src/meshfem3D/create_MPI_interfaces.f90
gfortran  -O3 -std=gnu -Wall -Wno-conversion -Wno-maybe-uninitialized -DFORCE_VECTORIZATION -J./obj -I./obj -I.  -I. -I./setup -c -o obj/create_regions_mesh.check.o src/meshfem3D/create_regions_mesh.F90
gfortran  -O3 -std=gnu -Wall -Wno-conversion -Wno-maybe-uninitialized -DFORCE_VECTORIZATION -J./obj -I./obj -I.  -I. -I./setup -c -o obj/create_regions_elements.check.o src/meshfem3D/create_regions_elements.f90
gfortran  -O3 -std=gnu -Wall -Wno-conversion -Wno-maybe-uninitialized -DFORCE_VECTORIZATION -J./obj -I./obj -I.  -I. -I./setup -c -o obj/create_regular_elements.check.o src/meshfem3D/create_regular_elements.f90
gfortran  -O3 -std=gnu -Wall -Wno-conversion -Wno-maybe-uninitialized -DFORCE_VECTORIZATION -J./obj -I./obj -I.  -I. -I./setup -c -o obj/define_superbrick.check.o src/meshfem3D/define_superbrick.f90
gfortran  -O3 -std=gnu -Wall -Wno-conversion -Wno-maybe-uninitialized -DFORCE_VECTORIZATION -J./obj -I./obj -I.  -I. -I./setup -c -o obj/finalize_mesher.check.o src/meshfem3D/finalize_mesher.f90
gfortran  -O3 -std=gnu -Wall -Wno-conversion -Wno-maybe-uninitialized -DFORCE_VECTORIZATION -J./obj -I./obj -I.  -I. -I./setup -c -o obj/fix_non_blocking_flags.check.o src/meshfem3D/fix_non_blocking_flags.f90
gfortran  -O3 -std=gnu -Wall -Wno-conversion -Wno-maybe-uninitialized -DFORCE_VECTORIZATION -J./obj -I./obj -I.  -I. -I./setup -c -o obj/get_absorb.check.o src/meshfem3D/get_absorb.f90
gfortran  -O3 -std=gnu -Wall -Wno-conversion -Wno-maybe-uninitialized -DFORCE_VECTORIZATION -J./obj -I./obj -I.  -I. -I./setup -c -o obj/get_ellipticity.check.o src/meshfem3D/get_ellipticity.f90
gfortran  -O3 -std=gnu -Wall -Wno-conversion -Wno-maybe-uninitialized -DFORCE_VECTORIZATION -J./obj -I./obj -I.  -I. -I./setup -c -o obj/get_jacobian_boundaries.check.o src/meshfem3D/get_jacobian_boundaries.f90
gfortran  -O3 -std=gnu -Wall -Wno-conversion -Wno-maybe-uninitialized -DFORCE_VECTORIZATION -J./obj -I./obj -I.  -I. -I./setup -c -o obj/get_jacobian_discontinuities.check.o src/meshfem3D/get_jacobian_discontinuities.f90
gfortran  -O3 -std=gnu -Wall -Wno-conversion -Wno-maybe-uninitialized -DFORCE_VECTORIZATION -J./obj -I./obj -I.  -I. -I./setup -c -o obj/get_model.check.o src/meshfem3D/get_model.F90
gfortran  -O3 -std=gnu -Wall -Wno-conversion -Wno-maybe-uninitialized -DFORCE_VECTORIZATION -J./obj -I./obj -I.  -I. -I./setup -c -o obj/get_MPI_1D_buffers.check.o src/meshfem3D/get_MPI_1D_buffers.f90
gfortran  -O3 -std=gnu -Wall -Wno-conversion -Wno-maybe-uninitialized -DFORCE_VECTORIZATION -J./obj -I./obj -I.  -I. -I./setup -c -o obj/get_MPI_cutplanes_eta.check.o src/meshfem3D/get_MPI_cutplanes_eta.f90
gfortran  -O3 -std=gnu -Wall -Wno-conversion -Wno-maybe-uninitialized -DFORCE_VECTORIZATION -J./obj -I./obj -I.  -I. -I./setup -c -o obj/get_MPI_cutplanes_xi.check.o src/meshfem3D/get_MPI_cutplanes_xi.f90
gfortran  -O3 -std=gnu -Wall -Wno-conversion -Wno-maybe-uninitialized -DFORCE_VECTORIZATION -J./obj -I./obj -I.  -I. -I./setup -c -o obj/get_MPI_interfaces.check.o src/meshfem3D/get_MPI_interfaces.f90
gfortran  -O3 -std=gnu -Wall -Wno-conversion -Wno-maybe-uninitialized -DFORCE_VECTORIZATION -J./obj -I./obj -I.  -I. -I./setup -c -o obj/get_perm_color.check.o src/meshfem3D/get_perm_color.f90
gfortran  -O3 -std=gnu -Wall -Wno-conversion -Wno-maybe-uninitialized -DFORCE_VECTORIZATION -J./obj -I./obj -I.  -I. -I./setup -c -o obj/get_shape2D.check.o src/meshfem3D/get_shape2D.f90
gfortran  -O3 -std=gnu -Wall -Wno-conversion -Wno-maybe-uninitialized -DFORCE_VECTORIZATION -J./obj -I./obj -I.  -I. -I./setup -c -o obj/get_shape3D.check.o src/meshfem3D/get_shape3D.f90
gfortran  -O3 -std=gnu -Wall -Wno-conversion -Wno-maybe-uninitialized -DFORCE_VECTORIZATION -J./obj -I./obj -I.  -I. -I./setup -c -o obj/gravity_integrals.check.o src/meshfem3D/gravity_integrals.F90
gfortran  -O3 -std=gnu -Wall -Wno-conversion -Wno-maybe-uninitialized -DFORCE_VECTORIZATION -J./obj -I./obj -I.  -I. -I./setup -c -o obj/initialize_layers.check.o src/meshfem3D/initialize_layers.f90
gfortran  -O3 -std=gnu -Wall -Wno-conversion -Wno-maybe-uninitialized -DFORCE_VECTORIZATION -J./obj -I./obj -I.  -I. -I./setup -c -o obj/initialize_mesher.check.o src/meshfem3D/initialize_mesher.f90
gfortran  -O3 -std=gnu -Wall -Wno-conversion -Wno-maybe-uninitialized -DFORCE_VECTORIZATION -J./obj -I./obj -I.  -I. -I./setup -c -o obj/lgndr.check.o src/meshfem3D/lgndr.f90
gfortran  -O3 -std=gnu -Wall -Wno-conversion -Wno-maybe-uninitialized -DFORCE_VECTORIZATION -J./obj -I./obj -I.  -I. -I./setup -c -o obj/model_1dref.check.o src/meshfem3D/model_1dref.f90
gfortran  -O3 -std=gnu -Wall -Wno-conversion -Wno-maybe-uninitialized -DFORCE_VECTORIZATION -J./obj -I./obj -I.  -I. -I./setup -c -o obj/model_1066a.check.o src/meshfem3D/model_1066a.f90
gfortran  -O3 -std=gnu -Wall -Wno-conversion -Wno-maybe-uninitialized -DFORCE_VECTORIZATION -J./obj -I./obj -I.  -I. -I./setup -c -o obj/model_ak135.check.o src/meshfem3D/model_ak135.f90
gfortran  -O3 -std=gnu -Wall -Wno-conversion -Wno-maybe-uninitialized -DFORCE_VECTORIZATION -J./obj -I./obj -I.  -I. -I./setup -c -o obj/model_sea1d.check.o src/meshfem3D/model_sea1d.f90
gfortran  -O3 -std=gnu -Wall -Wno-conversion -Wno-maybe-uninitialized -DFORCE_VECTORIZATION -J./obj -I./obj -I.  -I. -I./setup -c -o obj/model_aniso_inner_core.check.o src/meshfem3D/model_aniso_inner_core.f90
gfortran  -O3 -std=gnu -Wall -Wno-conversion -Wno-maybe-uninitialized -DFORCE_VECTORIZATION -J./obj -I./obj -I.  -I. -I./setup -c -o obj/model_aniso_mantle.check.o src/meshfem3D/model_aniso_mantle.f90
gfortran  -O3 -std=gnu -Wall -Wno-conversion -Wno-maybe-uninitialized -DFORCE_VECTORIZATION -J./obj -I./obj -I.  -I. -I./setup -c -o obj/model_atten3D_QRFSI12.check.o src/meshfem3D/model_atten3D_QRFSI12.f90
gfortran  -O3 -std=gnu -Wall -Wno-conversion -Wno-maybe-uninitialized -DFORCE_VECTORIZATION -J./obj -I./obj -I.  -I. -I./setup -c -o obj/model_crust_1_0.check.o src/meshfem3D/model_crust_1_0.f90
gfortran  -O3 -std=gnu -Wall -Wno-conversion -Wno-maybe-uninitialized -DFORCE_VECTORIZATION -J./obj -I./obj -I.  -I. -I./setup -c -o obj/model_crust_2_0.check.o src/meshfem3D/model_crust_2_0.f90
gfortran  -O3 -std=gnu -Wall -Wno-conversion -Wno-maybe-uninitialized -DFORCE_VECTORIZATION -J./obj -I./obj -I.  -I. -I./setup -c -o obj/model_crustmaps.check.o src/meshfem3D/model_crustmaps.f90
gfortran  -O3 -std=gnu -Wall -Wno-conversion -Wno-maybe-uninitialized -DFORCE_VECTORIZATION -J./obj -I./obj -I.  -I. -I./setup -c -o obj/model_eucrust.check.o src/meshfem3D/model_eucrust.f90
gfortran  -O3 -std=gnu -Wall -Wno-conversion -Wno-maybe-uninitialized -DFORCE_VECTORIZATION -J./obj -I./obj -I.  -I. -I./setup -c -o obj/model_epcrust.check.o src/meshfem3D/model_epcrust.f90
gfortran  -O3 -std=gnu -Wall -Wno-conversion -Wno-maybe-uninitialized -DFORCE_VECTORIZATION -J./obj -I./obj -I.  -I. -I./setup -c -o obj/model_full_sh.check.o src/meshfem3D/model_full_sh.f90
gfortran  -O3 -std=gnu -Wall -Wno-conversion -Wno-maybe-uninitialized -DFORCE_VECTORIZATION -J./obj -I./obj -I.  -I. -I./setup -c -o obj/model_gapp2.check.o src/meshfem3D/model_gapp2.f90
gfortran  -O3 -std=gnu -Wall -Wno-conversion -Wno-maybe-uninitialized -DFORCE_VECTORIZATION -J./obj -I./obj -I.  -I. -I./setup -c -o obj/model_gll.check.o src/meshfem3D/model_gll.f90
gfortran  -O3 -std=gnu -Wall -Wno-conversion -Wno-maybe-uninitialized -DFORCE_VECTORIZATION -J./obj -I./obj -I.  -I. -I./setup -c -o obj/model_heterogen_mantle.check.o src/meshfem3D/model_heterogen_mantle.f90
gfortran  -O3 -std=gnu -Wall -Wno-conversion -Wno-maybe-uninitialized -DFORCE_VECTORIZATION -J./obj -I./obj -I.  -I. -I./setup -c -o obj/model_iasp91.check.o src/meshfem3D/model_iasp91.f90
gfortran  -O3 -std=gnu -Wall -Wno-conversion -Wno-maybe-uninitialized -DFORCE_VECTORIZATION -J./obj -I./obj -I.  -I. -I./setup -c -o obj/model_jp1d.check.o src/meshfem3D/model_jp1d.f90
gfortran  -O3 -std=gnu -Wall -Wno-conversion -Wno-maybe-uninitialized -DFORCE_VECTORIZATION -J./obj -I./obj -I.  -I. -I./setup -c -o obj/model_jp3d.check.o src/meshfem3D/model_jp3d.f90
gfortran  -O3 -std=gnu -Wall -Wno-conversion -Wno-maybe-uninitialized -DFORCE_VECTORIZATION -J./obj -I./obj -I.  -I. -I./setup -c -o obj/model_ppm.check.o src/meshfem3D/model_ppm.f90
gfortran  -O3 -std=gnu -Wall -Wno-conversion -Wno-maybe-uninitialized -DFORCE_VECTORIZATION -J./obj -I./obj -I.  -I. -I./setup -c -o obj/model_s20rts.check.o src/meshfem3D/model_s20rts.f90
gfortran  -O3 -std=gnu -Wall -Wno-conversion -Wno-maybe-uninitialized -DFORCE_VECTORIZATION -J./obj -I./obj -I.  -I. -I./setup -c -o obj/model_s40rts.check.o src/meshfem3D/model_s40rts.f90
gfortran  -O3 -std=gnu -Wall -Wno-conversion -Wno-maybe-uninitialized -DFORCE_VECTORIZATION -J./obj -I./obj -I.  -I. -I./setup -c -o obj/model_s362ani.check.o src/meshfem3D/model_s362ani.f90
gfortran  -O3 -std=gnu -Wall -Wno-conversion -Wno-maybe-uninitialized -DFORCE_VECTORIZATION -J./obj -I./obj -I.  -I. -I./setup -c -o obj/model_sea99_s.check.o src/meshfem3D/model_sea99_s.f90
gfortran  -O3 -std=gnu -Wall -Wno-conversion -Wno-maybe-uninitialized -DFORCE_VECTORIZATION -J./obj -I./obj -I.  -I. -I./setup -c -o obj/model_sglobe.check.o src/meshfem3D/model_sglobe.f90
gfortran  -O3 -std=gnu -Wall -Wno-conversion -Wno-maybe-uninitialized -DFORCE_VECTORIZATION -J./obj -I./obj -I.  -I. -I./setup -c -o obj/moho_stretching.check.o src/meshfem3D/moho_stretching.f90
gfortran  -O3 -std=gnu -Wall -Wno-conversion -Wno-maybe-uninitialized -DFORCE_VECTORIZATION -J./obj -I./obj -I.  -I. -I./setup -c -o obj/save_arrays_solver.check.o src/meshfem3D/save_arrays_solver.f90
gfortran  -O3 -std=gnu -Wall -Wno-conversion -Wno-maybe-uninitialized -DFORCE_VECTORIZATION -J./obj -I./obj -I.  -I. -I./setup -c -o obj/setup_color_perm.check.o src/meshfem3D/setup_color_perm.f90
gfortran  -O3 -std=gnu -Wall -Wno-conversion -Wno-maybe-uninitialized -DFORCE_VECTORIZATION -J./obj -I./obj -I.  -I. -I./setup -c -o obj/setup_counters.check.o src/meshfem3D/setup_counters.f90
gfortran  -O3 -std=gnu -Wall -Wno-conversion -Wno-maybe-uninitialized -DFORCE_VECTORIZATION -J./obj -I./obj -I.  -I. -I./setup -c -o obj/setup_inner_outer.check.o src/meshfem3D/setup_inner_outer.f90
gfortran  -O3 -std=gnu -Wall -Wno-conversion -Wno-maybe-uninitialized -DFORCE_VECTORIZATION -J./obj -I./obj -I.  -I. -I./setup -c -o obj/setup_model.check.o src/meshfem3D/setup_model.f90
gfortran  -O3 -std=gnu -Wall -Wno-conversion -Wno-maybe-uninitialized -DFORCE_VECTORIZATION -J./obj -I./obj -I.  -I. -I./setup -c -o obj/setup_MPI_interfaces.check.o src/meshfem3D/setup_MPI_interfaces.f90
gfortran  -O3 -std=gnu -Wall -Wno-conversion -Wno-maybe-uninitialized -DFORCE_VECTORIZATION -J./obj -I./obj -I.  -I. -I./setup -c -o obj/stretching_function.check.o src/meshfem3D/stretching_function.f90
gfortran  -O3 -std=gnu -Wall -Wno-conversion -Wno-maybe-uninitialized -DFORCE_VECTORIZATION -J./obj -I./obj -I.  -I. -I./setup -c -o obj/test_MPI_interfaces.check.o src/meshfem3D/test_MPI_interfaces.f90
gfortran  -O3 -std=gnu -Wall -Wno-conversion -Wno-maybe-uninitialized -DFORCE_VECTORIZATION -J./obj -I./obj -I.  -I. -I./setup -c -o obj/write_AVS_DX_global_chunks_data.check.o src/meshfem3D/write_AVS_DX_global_chunks_data.f90
gfortran  -O3 -std=gnu -Wall -Wno-conversion -Wno-maybe-uninitialized -DFORCE_VECTORIZATION -J./obj -I./obj -I.  -I. -I./setup -c -o obj/write_AVS_DX_global_data.check.o src/meshfem3D/write_AVS_DX_global_data.f90
gfortran  -O3 -std=gnu -Wall -Wno-conversion -Wno-maybe-uninitialized -DFORCE_VECTORIZATION -J./obj -I./obj -I.  -I. -I./setup -c -o obj/write_AVS_DX_global_faces_data.check.o src/meshfem3D/write_AVS_DX_global_faces_data.f90
gfortran  -O3 -std=gnu -Wall -Wno-conversion -Wno-maybe-uninitialized -DFORCE_VECTORIZATION -J./obj -I./obj -I.  -I. -I./setup -c -o obj/write_AVS_DX_output.check.o src/meshfem3D/write_AVS_DX_output.f90
gfortran  -O3 -std=gnu -Wall -Wno-conversion -Wno-maybe-uninitialized -DFORCE_VECTORIZATION -J./obj -I./obj -I.  -I. -I./setup -c -o obj/write_AVS_DX_surface_data.check.o src/meshfem3D/write_AVS_DX_surface_data.f90

running xcreate_header_file...

./bin/xcreate_header_file
gfortran  -O3 -std=gnu -Wall -Wno-conversion -Wno-maybe-uninitialized -DFORCE_VECTORIZATION -J./obj -I./obj -I.  -I. -I./setup -c -o obj/model_attenuation.check.o src/meshfem3D/model_attenuation.f90

 creating file OUTPUT_FILES/values_from_mesher.h to compile solver with correct values

 edit file OUTPUT_FILES/values_from_mesher.h to see
 some statistics about the mesh

 number of processors =            4

 maximum number of points per region =        38773

 total elements per slice =          585
 total points per slice =        42695

 the time step of the solver will be DT =   0.118749999      (s)
 the (approximate) minimum period resolved will be =    90.6666641      (s)

 current record length is =    8.00000000     min
 current minimum number of time steps will be =         4100

 MOVIE_VOLUME : F
 MOVIE_SURFACE: T
 Saving movie frames every         200

 on NEC SX, make sure "loopcnt=" parameter
 in Makefile is greater than max vector length =       116319

 approximate static memory needed by the solver:
 ----------------------------------------------

 (lower bound, usually the real amount used is 5% to 10% higher)

 (you can get a more precise estimate of the size used per MPI process
  by typing "size -d bin/xspecfem3D"
  after compiling the code with the DATA/Par_file you plan to use)

 size of static arrays per slice =    84.136032000000000       MB
                                 =    80.238372802734375       MiB
                                 =    8.4136031999999999E-002  GB
                                 =    7.8357785940170288E-002  GiB

    (should be below 80% or 90% of the memory installed per core)
    (if significantly more, the job will not run by lack of memory)
    (note that if significantly less, you waste a significant amount
     of memory per processor core)
    (but that can be perfectly acceptable if you can afford it and
     want faster results by using more cores)

 size of static arrays for all slices =    336.54412800000000       MB
                                      =    320.95349121093750       MiB
                                      =   0.33654412800000000       GB
                                      =   0.31343114376068115       GiB
                                      =    3.3654412800000001E-004  TB
                                      =    3.0608510132879019E-004  TiB


gfortran  -O3 -std=gnu -Wall -Wno-conversion -Wno-maybe-uninitialized -DFORCE_VECTORIZATION -J./obj -I./obj -I.  -I. -I./setup -c -o obj/asdf_data.solverstatic_module.o src/specfem3D/asdf_data.f90
gfortran  -O3 -std=gnu -Wall -Wno-conversion -Wno-maybe-uninitialized -DFORCE_VECTORIZATION -J./obj -I./obj -I.  -I. -I./setup -c -o obj/specfem3D_par.solverstatic_module.o src/specfem3D/specfem3D_par.F90
gfortran  -O3 -std=gnu -Wall -Wno-conversion -Wno-maybe-uninitialized -DFORCE_VECTORIZATION -J./obj -I./obj -I.  -I. -I./setup -c -o obj/combine_AVS_DX.aux.o src/auxiliaries/combine_AVS_DX.f90
gfortran  -O3 -std=gnu -Wall -Wno-conversion -Wno-maybe-uninitialized -DFORCE_VECTORIZATION -J./obj -I./obj -I.  -I. -I./setup -c -o obj/combine_surf_data.auxsolver.o src/auxiliaries/combine_surf_data.f90
gfortran  -O3 -std=gnu -Wall -Wno-conversion -Wno-maybe-uninitialized -DFORCE_VECTORIZATION -J./obj -I./obj -I.  -I. -I./setup -c -o obj/combine_vol_data.auxsolver.o src/auxiliaries/combine_vol_data.F90
gfortran  -O3 -std=gnu -Wall -Wno-conversion -Wno-maybe-uninitialized -DFORCE_VECTORIZATION -J./obj -I./obj -I.  -I. -I./setup -c -o obj/combine_vol_data.auxsolver_vtk.o src/auxiliaries/combine_vol_data.F90 -DUSE_VTK_INSTEAD_OF_MESH
gfortran  -O3 -std=gnu -Wall -Wno-conversion -Wno-maybe-uninitialized -DFORCE_VECTORIZATION -J./obj -I./obj -I.  -I. -I./setup -c -o obj/convolve_source_timefunction.aux.o src/auxiliaries/convolve_source_timefunction.f90
gfortran  -O3 -std=gnu -Wall -Wno-conversion -Wno-maybe-uninitialized -DFORCE_VECTORIZATION -J./obj -I./obj -I.  -I. -I./setup -c -o obj/create_movie_AVS_DX.aux.o src/auxiliaries/create_movie_AVS_DX.f90
gfortran  -O3 -std=gnu -Wall -Wno-conversion -Wno-maybe-uninitialized -DFORCE_VECTORIZATION -J./obj -I./obj -I.  -I. -I./setup -c -o obj/create_movie_GMT_global.aux.o src/auxiliaries/create_movie_GMT_global.f90
gfortran  -O3 -std=gnu -Wall -Wno-conversion -Wno-maybe-uninitialized -DFORCE_VECTORIZATION -J./obj -I./obj -I.  -I. -I./setup -c -o obj/write_profile.aux.o src/auxiliaries/write_profile.f90
gfortran  -O3 -std=gnu -Wall -Wno-conversion -Wno-maybe-uninitialized -DFORCE_VECTORIZATION -J./obj -I./obj -I.  -I. -I./setup -c -o obj/detect_duplicates_stations_file.aux.o src/auxiliaries/detect_duplicates_stations_file.f90
gfortran  -O3 -std=gnu -Wall -Wno-conversion -Wno-maybe-uninitialized -DFORCE_VECTORIZATION -J./obj -I./obj -I.  -I. -I./setup -c -o obj/combine_paraview_strain_data.auxsolver.o src/auxiliaries/combine_paraview_strain_data.f90
gfortran  -O3 -std=gnu -Wall -Wno-conversion -Wno-maybe-uninitialized -DFORCE_VECTORIZATION -J./obj -I./obj -I.  -I. -I./setup -c -o obj/extract_database.aux.o src/auxiliaries/extract_database.f90
gfortran  -O3 -std=gnu -Wall -Wno-conversion -Wno-maybe-uninitialized -DFORCE_VECTORIZATION -J./obj -I./obj -I.  -I. -I./setup -c -o obj/postprocess_par.postprocess_module.o src/tomography/postprocess_sensitivity_kernels/postprocess_par.f90
gfortran  -O3 -std=gnu -Wall -Wno-conversion -Wno-maybe-uninitialized -DFORCE_VECTORIZATION -J./obj -I./obj -I.  -I. -I./setup -c -o obj/tomography_par.tomo_module.o src/tomography/tomography_par.f90
mpif90  -O3 -std=gnu -Wall -Wno-conversion -Wno-maybe-uninitialized -DFORCE_VECTORIZATION -o bin/xmeshfem3D obj/shared_par.shared_module.o obj/adios_manager.shared_adios_module.o obj/auto_ner.shared.o obj/binary_c_io.cc.o obj/broadcast_computed_parameters.shared.o obj/count_elements.shared.o obj/count_number_of_sources.shared.o obj/count_points.shared.o obj/create_name_database.shared.o obj/define_all_layers.shared.o obj/euler_angles.shared.o obj/exit_mpi.shared.o obj/flush_system.shared.o obj/get_all_eight_slices.shared.o obj/get_global.shared.o obj/get_model_parameters.shared.o obj/get_timestep_and_layers.shared.o obj/gll_library.shared.o obj/heap_sort.shared.o obj/hex_nodes.shared.o obj/init_openmp.shared.o obj/intgrl.shared.o obj/lagrange_poly.shared.o obj/make_ellipticity.shared.o obj/memory_eval.shared.o obj/model_prem.shared.o obj/model_topo_bathy.shared.o obj/parallel.sharedmpi.o obj/param_reader.cc.o obj/read_compute_parameters.shared.o obj/read_parameter_file.shared.o obj/read_value_parameters.shared.o obj/reduce.shared.o obj/rthetaphi_xyz.shared.o obj/save_header_file.shared.o obj/smooth_weights_vec.shared.o obj/sort_array_coordinates.shared.o obj/spline_routines.shared.o obj/write_VTK_file.shared.o obj/ylm.shared.o obj/adios_method_stubs.cc.o obj/meshfem3D_par.check_module.o obj/meshfem3D.check.o obj/meshfem3D_models.check.o obj/add_missing_nodes.check.o obj/add_topography.check.o obj/add_topography_410_650.check.o obj/add_topography_cmb.check.o obj/add_topography_icb.check.o obj/assemble_MPI_central_cube_mesh.check.o obj/assemble_MPI_scalar_mesh.check.o obj/assemble_MPI_vector_mesh.check.o obj/calc_jacobian.check.o obj/check_mesh_resolution.check.o obj/compute_coordinates_grid.check.o obj/compute_element_properties.check.o obj/compute_volumes_and_areas.check.o obj/create_addressing.check.o obj/create_central_cube.check.o obj/create_central_cube_buffers.check.o obj/create_chunk_buffers.check.o obj/create_doubling_elements.check.o obj/create_mass_matrices.check.o obj/create_meshes.check.o obj/create_MPI_interfaces.check.o obj/create_regions_mesh.check.o obj/create_regions_elements.check.o obj/create_regular_elements.check.o obj/define_superbrick.check.o obj/finalize_mesher.check.o obj/fix_non_blocking_flags.check.o obj/get_absorb.check.o obj/get_ellipticity.check.o obj/get_jacobian_boundaries.check.o obj/get_jacobian_discontinuities.check.o obj/get_model.check.o obj/get_MPI_1D_buffers.check.o obj/get_MPI_cutplanes_eta.check.o obj/get_MPI_cutplanes_xi.check.o obj/get_MPI_interfaces.check.o obj/get_perm_color.check.o obj/get_shape2D.check.o obj/get_shape3D.check.o obj/gravity_integrals.check.o obj/initialize_layers.check.o obj/initialize_mesher.check.o obj/lgndr.check.o obj/model_1dref.check.o obj/model_1066a.check.o obj/model_ak135.check.o obj/model_sea1d.check.o obj/model_aniso_inner_core.check.o obj/model_aniso_mantle.check.o obj/model_atten3D_QRFSI12.check.o obj/model_attenuation.check.o obj/model_crust_1_0.check.o obj/model_crust_2_0.check.o obj/model_crustmaps.check.o obj/model_eucrust.check.o obj/model_epcrust.check.o obj/model_full_sh.check.o obj/model_gapp2.check.o obj/model_gll.check.o obj/model_heterogen_mantle.check.o obj/model_iasp91.check.o obj/model_jp1d.check.o obj/model_jp3d.check.o obj/model_ppm.check.o obj/model_s20rts.check.o obj/model_s40rts.check.o obj/model_s362ani.check.o obj/model_sea99_s.check.o obj/model_sglobe.check.o obj/moho_stretching.check.o obj/save_arrays_solver.check.o obj/setup_color_perm.check.o obj/setup_counters.check.o obj/setup_inner_outer.check.o obj/setup_model.check.o obj/setup_MPI_interfaces.check.o obj/stretching_function.check.o obj/test_MPI_interfaces.check.o obj/write_AVS_DX_global_chunks_data.check.o obj/write_AVS_DX_global_data.check.o obj/write_AVS_DX_global_faces_data.check.o obj/write_AVS_DX_output.check.o obj/write_AVS_DX_surface_data.check.o    
gfortran  -O3 -std=gnu -Wall -Wno-conversion -Wno-maybe-uninitialized -DFORCE_VECTORIZATION -J./obj -I./obj -I.  -I. -I./setup -c -o obj/comp_source_time_function.solverstatic.o src/specfem3D/comp_source_time_function.f90
gfortran  -O3 -std=gnu -Wall -Wno-conversion -Wno-maybe-uninitialized -DFORCE_VECTORIZATION -J./obj -I./obj -I.  -I. -I./setup -c -o obj/write_seismograms.solverstatic.o src/specfem3D/write_seismograms.f90
gfortran  -O3 -std=gnu -Wall -Wno-conversion -Wno-maybe-uninitialized -DFORCE_VECTORIZATION -J./obj -I./obj -I.  -I. -I./setup -c -o obj/check_stability.solverstatic.o src/specfem3D/check_stability.f90
gfortran  -O3 -std=gnu -Wall -Wno-conversion -Wno-maybe-uninitialized -DFORCE_VECTORIZATION -J./obj -I./obj -I.  -I. -I./setup -c -o obj/compute_add_sources.solverstatic.o src/specfem3D/compute_add_sources.f90
gfortran  -O3 -std=gnu -Wall -Wno-conversion -Wno-maybe-uninitialized -DFORCE_VECTORIZATION -J./obj -I./obj -I.  -I. -I./setup -c -o obj/compute_boundary_kernel.solverstatic.o src/specfem3D/compute_boundary_kernel.f90
gfortran  -O3 -std=gnu -Wall -Wno-conversion -Wno-maybe-uninitialized -DFORCE_VECTORIZATION -J./obj -I./obj -I.  -I. -I./setup -c -o obj/compute_coupling.solverstatic.o src/specfem3D/compute_coupling.f90
gfortran  -O3 -std=gnu -Wall -Wno-conversion -Wno-maybe-uninitialized -DFORCE_VECTORIZATION -J./obj -I./obj -I.  -I. -I./setup -c -o obj/compute_element.solverstatic.o src/specfem3D/compute_element.F90
gfortran  -O3 -std=gnu -Wall -Wno-conversion -Wno-maybe-uninitialized -DFORCE_VECTORIZATION -J./obj -I./obj -I.  -I. -I./setup -c -o obj/compute_element_att_memory.solverstatic.o src/specfem3D/compute_element_att_memory.F90
gfortran  -O3 -std=gnu -Wall -Wno-conversion -Wno-maybe-uninitialized -DFORCE_VECTORIZATION -J./obj -I./obj -I.  -I. -I./setup -c -o obj/compute_element_strain.solverstatic.o src/specfem3D/compute_element_strain.F90
gfortran  -O3 -std=gnu -Wall -Wno-conversion -Wno-maybe-uninitialized -DFORCE_VECTORIZATION -J./obj -I./obj -I.  -I. -I./setup -c -o obj/compute_forces_acoustic_calling_routine.solverstatic.o src/specfem3D/compute_forces_acoustic_calling_routine.F90
gfortran  -O3 -std=gnu -Wall -Wno-conversion -Wno-maybe-uninitialized -DFORCE_VECTORIZATION -J./obj -I./obj -I.  -I. -I./setup -c -o obj/compute_forces_viscoelastic_calling_routine.solverstatic.o src/specfem3D/compute_forces_viscoelastic_calling_routine.F90
gfortran  -O3 -std=gnu -Wall -Wno-conversion -Wno-maybe-uninitialized -DFORCE_VECTORIZATION -J./obj -I./obj -I.  -I. -I./setup -c -o obj/compute_forces_crust_mantle_noDev.solverstatic.o src/specfem3D/compute_forces_crust_mantle_noDev.f90
gfortran  -O3 -std=gnu -Wall -Wno-conversion -Wno-maybe-uninitialized -DFORCE_VECTORIZATION -J./obj -I./obj -I.  -I. -I./setup -c -o obj/compute_forces_crust_mantle_Dev.solverstatic.o src/specfem3D/compute_forces_crust_mantle_Dev.F90
gfortran  -O3 -std=gnu -Wall -Wno-conversion -Wno-maybe-uninitialized -DFORCE_VECTORIZATION -J./obj -I./obj -I.  -I. -I./setup -c -o obj/compute_forces_inner_core_noDev.solverstatic.o src/specfem3D/compute_forces_inner_core_noDev.f90
gfortran  -O3 -std=gnu -Wall -Wno-conversion -Wno-maybe-uninitialized -DFORCE_VECTORIZATION -J./obj -I./obj -I.  -I. -I./setup -c -o obj/compute_forces_inner_core_Dev.solverstatic.o src/specfem3D/compute_forces_inner_core_Dev.F90
gfortran  -O3 -std=gnu -Wall -Wno-conversion -Wno-maybe-uninitialized -DFORCE_VECTORIZATION -J./obj -I./obj -I.  -I. -I./setup -c -o obj/compute_forces_outer_core_noDev.solverstatic.o src/specfem3D/compute_forces_outer_core_noDev.f90
gfortran  -O3 -std=gnu -Wall -Wno-conversion -Wno-maybe-uninitialized -DFORCE_VECTORIZATION -J./obj -I./obj -I.  -I. -I./setup -c -o obj/compute_forces_outer_core_Dev.solverstatic.o src/specfem3D/compute_forces_outer_core_Dev.F90
gfortran  -O3 -std=gnu -Wall -Wno-conversion -Wno-maybe-uninitialized -DFORCE_VECTORIZATION -J./obj -I./obj -I.  -I. -I./setup -c -o obj/compute_kernels.solverstatic.o src/specfem3D/compute_kernels.F90
gfortran  -O3 -std=gnu -Wall -Wno-conversion -Wno-maybe-uninitialized -DFORCE_VECTORIZATION -J./obj -I./obj -I.  -I. -I./setup -c -o obj/compute_seismograms.solverstatic.o src/specfem3D/compute_seismograms.F90
gfortran  -O3 -std=gnu -Wall -Wno-conversion -Wno-maybe-uninitialized -DFORCE_VECTORIZATION -J./obj -I./obj -I.  -I. -I./setup -c -o obj/compute_stacey_crust_mantle.solverstatic.o src/specfem3D/compute_stacey_crust_mantle.f90
gfortran  -O3 -std=gnu -Wall -Wno-conversion -Wno-maybe-uninitialized -DFORCE_VECTORIZATION -J./obj -I./obj -I.  -I. -I./setup -c -o obj/compute_stacey_outer_core.solverstatic.o src/specfem3D/compute_stacey_outer_core.f90
gfortran  -O3 -std=gnu -Wall -Wno-conversion -Wno-maybe-uninitialized -DFORCE_VECTORIZATION -J./obj -I./obj -I.  -I. -I./setup -c -o obj/finalize_simulation.solverstatic.o src/specfem3D/finalize_simulation.F90
gfortran  -O3 -std=gnu -Wall -Wno-conversion -Wno-maybe-uninitialized -DFORCE_VECTORIZATION -J./obj -I./obj -I.  -I. -I./setup -c -o obj/get_attenuation.solverstatic.o src/specfem3D/get_attenuation.f90
gfortran  -O3 -std=gnu -Wall -Wno-conversion -Wno-maybe-uninitialized -DFORCE_VECTORIZATION -J./obj -I./obj -I.  -I. -I./setup -c -o obj/initialize_simulation.solverstatic.o src/specfem3D/initialize_simulation.f90
gfortran  -O3 -std=gnu -Wall -Wno-conversion -Wno-maybe-uninitialized -DFORCE_VECTORIZATION -J./obj -I./obj -I.  -I. -I./setup -c -o obj/iterate_time.solverstatic.o src/specfem3D/iterate_time.F90
gfortran  -O3 -std=gnu -Wall -Wno-conversion -Wno-maybe-uninitialized -DFORCE_VECTORIZATION -J./obj -I./obj -I.  -I. -I./setup -c -o obj/iterate_time_undoatt.solverstatic.o src/specfem3D/iterate_time_undoatt.F90
gfortran  -O3 -std=gnu -Wall -Wno-conversion -Wno-maybe-uninitialized -DFORCE_VECTORIZATION -J./obj -I./obj -I.  -I. -I./setup -c -o obj/locate_receivers.solverstatic.o src/specfem3D/locate_receivers.f90
gfortran  -O3 -std=gnu -Wall -Wno-conversion -Wno-maybe-uninitialized -DFORCE_VECTORIZATION -J./obj -I./obj -I.  -I. -I./setup -c -o obj/locate_regular_points.solverstatic.o src/specfem3D/locate_regular_points.f90
gfortran  -O3 -std=gnu -Wall -Wno-conversion -Wno-maybe-uninitialized -DFORCE_VECTORIZATION -J./obj -I./obj -I.  -I. -I./setup -c -o obj/locate_sources.solverstatic.o src/specfem3D/locate_sources.f90
gfortran  -O3 -std=gnu -Wall -Wno-conversion -Wno-maybe-uninitialized -DFORCE_VECTORIZATION -J./obj -I./obj -I.  -I. -I./setup -c -o obj/multiply_arrays_source.solverstatic.o src/specfem3D/multiply_arrays_source.f90
gfortran  -O3 -std=gnu -Wall -Wno-conversion -Wno-maybe-uninitialized -DFORCE_VECTORIZATION -J./obj -I./obj -I.  -I. -I./setup -c -o obj/noise_tomography.solverstatic.o src/specfem3D/noise_tomography.f90
gfortran  -O3 -std=gnu -Wall -Wno-conversion -Wno-maybe-uninitialized -DFORCE_VECTORIZATION -J./obj -I./obj -I.  -I. -I./setup -c -o obj/prepare_attenuation.solverstatic.o src/specfem3D/prepare_attenuation.f90
gfortran  -O3 -std=gnu -Wall -Wno-conversion -Wno-maybe-uninitialized -DFORCE_VECTORIZATION -J./obj -I./obj -I.  -I. -I./setup -c -o obj/prepare_elastic_elements.solverstatic.o src/specfem3D/prepare_elastic_elements.F90
gfortran  -O3 -std=gnu -Wall -Wno-conversion -Wno-maybe-uninitialized -DFORCE_VECTORIZATION -J./obj -I./obj -I.  -I. -I./setup -c -o obj/prepare_gpu.solverstatic.o src/specfem3D/prepare_gpu.f90
gfortran  -O3 -std=gnu -Wall -Wno-conversion -Wno-maybe-uninitialized -DFORCE_VECTORIZATION -J./obj -I./obj -I.  -I. -I./setup -c -o obj/prepare_gravity.solverstatic.o src/specfem3D/prepare_gravity.f90
gfortran  -O3 -std=gnu -Wall -Wno-conversion -Wno-maybe-uninitialized -DFORCE_VECTORIZATION -J./obj -I./obj -I.  -I. -I./setup -c -o obj/prepare_movie.solverstatic.o src/specfem3D/prepare_movie.f90
gfortran  -O3 -std=gnu -Wall -Wno-conversion -Wno-maybe-uninitialized -DFORCE_VECTORIZATION -J./obj -I./obj -I.  -I. -I./setup -c -o obj/prepare_noise.solverstatic.o src/specfem3D/prepare_noise.f90
gfortran  -O3 -std=gnu -Wall -Wno-conversion -Wno-maybe-uninitialized -DFORCE_VECTORIZATION -J./obj -I./obj -I.  -I. -I./setup -c -o obj/prepare_oceans.solverstatic.o src/specfem3D/prepare_oceans.f90
gfortran  -O3 -std=gnu -Wall -Wno-conversion -Wno-maybe-uninitialized -DFORCE_VECTORIZATION -J./obj -I./obj -I.  -I. -I./setup -c -o obj/prepare_optimized_arrays.solverstatic.o src/specfem3D/prepare_optimized_arrays.F90
gfortran  -O3 -std=gnu -Wall -Wno-conversion -Wno-maybe-uninitialized -DFORCE_VECTORIZATION -J./obj -I./obj -I.  -I. -I./setup -c -o obj/prepare_stacey.solverstatic.o src/specfem3D/prepare_stacey.f90
gfortran  -O3 -std=gnu -Wall -Wno-conversion -Wno-maybe-uninitialized -DFORCE_VECTORIZATION -J./obj -I./obj -I.  -I. -I./setup -c -o obj/prepare_timerun.solverstatic.o src/specfem3D/prepare_timerun.F90
gfortran  -O3 -std=gnu -Wall -Wno-conversion -Wno-maybe-uninitialized -DFORCE_VECTORIZATION -J./obj -I./obj -I.  -I. -I./setup -c -o obj/prepare_vtk_window.solverstatic.o src/specfem3D/prepare_vtk_window.f90
gfortran  -O3 -std=gnu -Wall -Wno-conversion -Wno-maybe-uninitialized -DFORCE_VECTORIZATION -J./obj -I./obj -I.  -I. -I./setup -c -o obj/prepare_wavefields.solverstatic.o src/specfem3D/prepare_wavefields.F90
gfortran  -O3 -std=gnu -Wall -Wno-conversion -Wno-maybe-uninitialized -DFORCE_VECTORIZATION -J./obj -I./obj -I.  -I. -I./setup -c -o obj/print_stf_file.solverstatic.o src/specfem3D/print_stf_file.f90
gfortran  -O3 -std=gnu -Wall -Wno-conversion -Wno-maybe-uninitialized -DFORCE_VECTORIZATION -J./obj -I./obj -I.  -I. -I./setup -c -o obj/read_adjoint_sources.solverstatic.o src/specfem3D/read_adjoint_sources.f90
gfortran  -O3 -std=gnu -Wall -Wno-conversion -Wno-maybe-uninitialized -DFORCE_VECTORIZATION -J./obj -I./obj -I.  -I. -I./setup -c -o obj/read_arrays_solver.solverstatic.o src/specfem3D/read_arrays_solver.f90
gfortran  -O3 -std=gnu -Wall -Wno-conversion -Wno-maybe-uninitialized -DFORCE_VECTORIZATION -J./obj -I./obj -I.  -I. -I./setup -c -o obj/read_forward_arrays.solverstatic.o src/specfem3D/read_forward_arrays.f90
gfortran  -O3 -std=gnu -Wall -Wno-conversion -Wno-maybe-uninitialized -DFORCE_VECTORIZATION -J./obj -I./obj -I.  -I. -I./setup -c -o obj/read_mesh_databases.solverstatic.o src/specfem3D/read_mesh_databases.F90
gfortran  -O3 -std=gnu -Wall -Wno-conversion -Wno-maybe-uninitialized -DFORCE_VECTORIZATION -J./obj -I./obj -I.  -I. -I./setup -c -o obj/read_topography_bathymetry.solverstatic.o src/specfem3D/read_topography_bathymetry.f90
gfortran  -O3 -std=gnu -Wall -Wno-conversion -Wno-maybe-uninitialized -DFORCE_VECTORIZATION -J./obj -I./obj -I.  -I. -I./setup -c -o obj/save_forward_arrays.solverstatic.o src/specfem3D/save_forward_arrays.f90
gfortran  -O3 -std=gnu -Wall -Wno-conversion -Wno-maybe-uninitialized -DFORCE_VECTORIZATION -J./obj -I./obj -I.  -I. -I./setup -c -o obj/save_kernels.solverstatic.o src/specfem3D/save_kernels.F90
gfortran  -O3 -std=gnu -Wall -Wno-conversion -Wno-maybe-uninitialized -DFORCE_VECTORIZATION -J./obj -I./obj -I.  -I. -I./setup -c -o obj/save_regular_kernels.solverstatic.o src/specfem3D/save_regular_kernels.f90
gfortran  -O3 -std=gnu -Wall -Wno-conversion -Wno-maybe-uninitialized -DFORCE_VECTORIZATION -J./obj -I./obj -I.  -I. -I./setup -c -o obj/setup_GLL_points.solverstatic.o src/specfem3D/setup_GLL_points.f90
gfortran  -O3 -std=gnu -Wall -Wno-conversion -Wno-maybe-uninitialized -DFORCE_VECTORIZATION -J./obj -I./obj -I.  -I. -I./setup -c -o obj/setup_sources_receivers.solverstatic.o src/specfem3D/setup_sources_receivers.f90
gfortran  -O3 -std=gnu -Wall -Wno-conversion -Wno-maybe-uninitialized -DFORCE_VECTORIZATION -J./obj -I./obj -I.  -I. -I./setup -c -o obj/specfem3D.solverstatic.o src/specfem3D/specfem3D.F90
gfortran  -O3 -std=gnu -Wall -Wno-conversion -Wno-maybe-uninitialized -DFORCE_VECTORIZATION -J./obj -I./obj -I.  -I. -I./setup -c -o obj/update_displacement_LDDRK.solverstatic.o src/specfem3D/update_displacement_LDDRK.f90
gfortran  -O3 -std=gnu -Wall -Wno-conversion -Wno-maybe-uninitialized -DFORCE_VECTORIZATION -J./obj -I./obj -I.  -I. -I./setup -c -o obj/update_displacement_Newmark.solverstatic.o src/specfem3D/update_displacement_Newmark.f90
gfortran  -O3 -std=gnu -Wall -Wno-conversion -Wno-maybe-uninitialized -DFORCE_VECTORIZATION -J./obj -I./obj -I.  -I. -I./setup -c -o obj/write_movie_output.solverstatic.o src/specfem3D/write_movie_output.f90
gfortran  -O3 -std=gnu -Wall -Wno-conversion -Wno-maybe-uninitialized -DFORCE_VECTORIZATION -J./obj -I./obj -I.  -I. -I./setup -c -o obj/write_movie_volume.solverstatic.o src/specfem3D/write_movie_volume.f90
gfortran  -O3 -std=gnu -Wall -Wno-conversion -Wno-maybe-uninitialized -DFORCE_VECTORIZATION -J./obj -I./obj -I.  -I. -I./setup -c -o obj/write_movie_surface.solverstatic.o src/specfem3D/write_movie_surface.f90
gfortran  -O3 -std=gnu -Wall -Wno-conversion -Wno-maybe-uninitialized -DFORCE_VECTORIZATION -J./obj -I./obj -I.  -I. -I./setup -c -o obj/write_output_ASCII.solverstatic.o src/specfem3D/write_output_ASCII.f90
gfortran  -O3 -std=gnu -Wall -Wno-conversion -Wno-maybe-uninitialized -DFORCE_VECTORIZATION -J./obj -I./obj -I.  -I. -I./setup -c -o obj/write_output_SAC.solverstatic.o src/specfem3D/write_output_SAC.f90
gfortran  -O3 -std=gnu -Wall -Wno-conversion -Wno-maybe-uninitialized -DFORCE_VECTORIZATION -o bin/xcombine_AVS_DX obj/combine_AVS_DX.aux.o obj/get_cmt.solver.o obj/shared_par.shared_module.o obj/auto_ner.shared.o obj/calendar.shared.o obj/count_elements.shared.o obj/count_number_of_sources.shared.o obj/count_points.shared.o obj/create_serial_name_database.shared.o obj/define_all_layers.shared.o obj/get_model_parameters.shared.o obj/get_timestep_and_layers.shared.o obj/param_reader.cc.o obj/read_compute_parameters.shared.o obj/read_parameter_file.shared.o obj/read_value_parameters.shared.o obj/reduce.shared.o obj/rthetaphi_xyz.shared.o
gfortran  -O3 -std=gnu -Wall -Wno-conversion -Wno-maybe-uninitialized -DFORCE_VECTORIZATION -o bin/xcombine_surf_data obj/combine_surf_data.auxsolver.o obj/shared_par.shared_module.o obj/binary_c_io.cc.o obj/flush_system.shared.o
mpif90  -O3 -std=gnu -Wall -Wno-conversion -Wno-maybe-uninitialized -DFORCE_VECTORIZATION -o bin/xcombine_vol_data obj/combine_vol_data.auxsolver.o obj/shared_par.shared_module.o obj/binary_c_io.cc.o obj/exit_mpi.shared.o obj/flush_system.shared.o obj/intgrl.shared.o obj/make_ellipticity.shared.o obj/model_prem.shared.o obj/parallel.sharedmpi.o obj/read_parameter_file.shared.o obj/read_value_parameters.shared.o obj/param_reader.cc.o obj/reduce.shared.o obj/rthetaphi_xyz.shared.o obj/spline_routines.shared.o  
mpif90  -O3 -std=gnu -Wall -Wno-conversion -Wno-maybe-uninitialized -DFORCE_VECTORIZATION -o bin/xcombine_vol_data_vtk obj/combine_vol_data.auxsolver_vtk.o obj/shared_par.shared_module.o obj/binary_c_io.cc.o obj/exit_mpi.shared.o obj/flush_system.shared.o obj/intgrl.shared.o obj/make_ellipticity.shared.o obj/model_prem.shared.o obj/parallel.sharedmpi.o obj/read_parameter_file.shared.o obj/read_value_parameters.shared.o obj/param_reader.cc.o obj/reduce.shared.o obj/rthetaphi_xyz.shared.o obj/spline_routines.shared.o obj/write_VTK_file.shared.o  
gfortran  -O3 -std=gnu -Wall -Wno-conversion -Wno-maybe-uninitialized -DFORCE_VECTORIZATION -o bin/xconvolve_source_timefunction obj/convolve_source_timefunction.aux.o obj/shared_par.shared_module.o
gfortran  -O3 -std=gnu -Wall -Wno-conversion -Wno-maybe-uninitialized -DFORCE_VECTORIZATION -o bin/xcreate_movie_AVS_DX obj/create_movie_AVS_DX.aux.o obj/shared_par.shared_module.o obj/auto_ner.shared.o obj/count_elements.shared.o obj/count_number_of_sources.shared.o obj/count_points.shared.o obj/define_all_layers.shared.o obj/get_global.shared.o obj/get_model_parameters.shared.o obj/get_timestep_and_layers.shared.o obj/param_reader.cc.o obj/read_compute_parameters.shared.o obj/read_parameter_file.shared.o obj/read_value_parameters.shared.o obj/reduce.shared.o obj/rthetaphi_xyz.shared.o obj/sort_array_coordinates.shared.o
gfortran  -O3 -std=gnu -Wall -Wno-conversion -Wno-maybe-uninitialized -DFORCE_VECTORIZATION -o bin/xcreate_movie_GMT_global obj/create_movie_GMT_global.aux.o obj/shared_par.shared_module.o obj/auto_ner.shared.o obj/count_elements.shared.o obj/count_number_of_sources.shared.o obj/count_points.shared.o obj/define_all_layers.shared.o obj/get_model_parameters.shared.o obj/get_timestep_and_layers.shared.o obj/param_reader.cc.o obj/read_compute_parameters.shared.o obj/read_parameter_file.shared.o obj/read_value_parameters.shared.o obj/reduce.shared.o obj/rthetaphi_xyz.shared.o
mpif90  -O3 -std=gnu -Wall -Wno-conversion -Wno-maybe-uninitialized -DFORCE_VECTORIZATION -o bin/xwrite_profile obj/write_profile.aux.o obj/get_model.check.o obj/lgndr.check.o obj/meshfem3D_models.check.o obj/meshfem3D_par.check_module.o obj/model_1dref.check.o obj/model_1066a.check.o obj/model_ak135.check.o obj/model_sea1d.check.o obj/model_aniso_inner_core.check.o obj/model_aniso_mantle.check.o obj/model_atten3D_QRFSI12.check.o obj/model_attenuation.check.o obj/model_crust_1_0.check.o obj/model_crust_2_0.check.o obj/model_crustmaps.check.o obj/model_eucrust.check.o obj/model_epcrust.check.o obj/model_full_sh.check.o obj/model_gapp2.check.o obj/model_gll.check.o obj/model_heterogen_mantle.check.o obj/model_iasp91.check.o obj/model_jp1d.check.o obj/model_jp3d.check.o obj/model_ppm.check.o obj/model_s20rts.check.o obj/model_s40rts.check.o obj/model_s362ani.check.o obj/model_sea99_s.check.o obj/model_sglobe.check.o obj/adios_manager.shared_adios_module.o obj/shared_par.shared_module.o obj/auto_ner.shared.o obj/binary_c_io.cc.o obj/count_elements.shared.o obj/count_number_of_sources.shared.o obj/count_points.shared.o obj/create_name_database.shared.o obj/define_all_layers.shared.o obj/exit_mpi.shared.o obj/flush_system.shared.o obj/get_all_eight_slices.shared.o obj/get_global.shared.o obj/get_model_parameters.shared.o obj/get_timestep_and_layers.shared.o obj/gll_library.shared.o obj/heap_sort.shared.o obj/intgrl.shared.o obj/make_ellipticity.shared.o obj/model_prem.shared.o obj/model_topo_bathy.shared.o obj/parallel.sharedmpi.o obj/param_reader.cc.o obj/read_compute_parameters.shared.o obj/read_parameter_file.shared.o obj/read_value_parameters.shared.o obj/reduce.shared.o obj/rthetaphi_xyz.shared.o obj/smooth_weights_vec.shared.o obj/sort_array_coordinates.shared.o obj/spline_routines.shared.o obj/ylm.shared.o obj/adios_method_stubs.cc.o    
gfortran  -O3 -std=gnu -Wall -Wno-conversion -Wno-maybe-uninitialized -DFORCE_VECTORIZATION -o bin/xdetect_duplicates_stations_file obj/detect_duplicates_stations_file.aux.o obj/shared_par.shared_module.o
gfortran  -O3 -std=gnu -Wall -Wno-conversion -Wno-maybe-uninitialized -DFORCE_VECTORIZATION -o bin/xcombine_paraview_strain_data obj/combine_paraview_strain_data.auxsolver.o obj/shared_par.shared_module.o obj/binary_c_io.cc.o obj/reduce.shared.o obj/rthetaphi_xyz.shared.o obj/write_VTK_file.shared.o
gfortran  -O3 -std=gnu -Wall -Wno-conversion -Wno-maybe-uninitialized -DFORCE_VECTORIZATION -o bin/xextract_database obj/extract_database.aux.o
gfortran  -O3 -std=gnu -Wall -Wno-conversion -Wno-maybe-uninitialized -DFORCE_VECTORIZATION -J./obj -I./obj -I.  -I. -I./setup -c -o obj/addition_sem.postprocess.o src/tomography/postprocess_sensitivity_kernels/addition_sem.f90
gfortran  -O3 -std=gnu -Wall -Wno-conversion -Wno-maybe-uninitialized -DFORCE_VECTORIZATION -J./obj -I./obj -I.  -I. -I./setup -c -o obj/parse_kernel_names.postprocess.o src/tomography/postprocess_sensitivity_kernels/parse_kernel_names.f90
gfortran  -O3 -std=gnu -Wall -Wno-conversion -Wno-maybe-uninitialized -DFORCE_VECTORIZATION -J./obj -I./obj -I.  -I. -I./setup -c -o obj/clip_sem.postprocess.o src/tomography/postprocess_sensitivity_kernels/clip_sem.f90
gfortran  -O3 -std=gnu -Wall -Wno-conversion -Wno-maybe-uninitialized -DFORCE_VECTORIZATION -J./obj -I./obj -I.  -I. -I./setup -c -o obj/combine_sem.postprocess.o src/tomography/postprocess_sensitivity_kernels/combine_sem.f90
gfortran  -O3 -std=gnu -Wall -Wno-conversion -Wno-maybe-uninitialized -DFORCE_VECTORIZATION -J./obj -I./obj -I.  -I. -I./setup -c -o obj/difference_sem.postprocess.o src/tomography/postprocess_sensitivity_kernels/difference_sem.f90
gfortran  -O3 -std=gnu -Wall -Wno-conversion -Wno-maybe-uninitialized -DFORCE_VECTORIZATION -J./obj -I./obj -I.  -I. -I./setup -c -o obj/interpolate_model.postprocess.o src/tomography/postprocess_sensitivity_kernels/interpolate_model.F90
gfortran  -O3 -std=gnu -Wall -Wno-conversion -Wno-maybe-uninitialized -DFORCE_VECTORIZATION -J./obj -I./obj -I.  -I. -I./setup -c -o obj/create_cross_section.postprocess.o src/tomography/postprocess_sensitivity_kernels/create_cross_section.F90
gfortran  -O3 -std=gnu -Wall -Wno-conversion -Wno-maybe-uninitialized -DFORCE_VECTORIZATION -J./obj -I./obj -I.  -I. -I./setup -c -o obj/smooth_sem.postprocess.o src/tomography/postprocess_sensitivity_kernels/smooth_sem.F90
gfortran  -O3 -std=gnu -Wall -Wno-conversion -Wno-maybe-uninitialized -DFORCE_VECTORIZATION -J./obj -I./obj -I.  -I. -I./setup -c -o obj/add_model_iso.tomo.o src/tomography/add_model_iso.f90
gfortran  -O3 -std=gnu -Wall -Wno-conversion -Wno-maybe-uninitialized -DFORCE_VECTORIZATION -J./obj -I./obj -I.  -I. -I./setup -c -o obj/compute_kernel_integral.tomo.o src/tomography/compute_kernel_integral.f90
gfortran  -O3 -std=gnu -Wall -Wno-conversion -Wno-maybe-uninitialized -DFORCE_VECTORIZATION -J./obj -I./obj -I.  -I. -I./setup -c -o obj/get_cg_direction.tomo.o src/tomography/get_cg_direction.f90
gfortran  -O3 -std=gnu -Wall -Wno-conversion -Wno-maybe-uninitialized -DFORCE_VECTORIZATION -J./obj -I./obj -I.  -I. -I./setup -c -o obj/get_sd_direction.tomo.o src/tomography/get_sd_direction.f90
gfortran  -O3 -std=gnu -Wall -Wno-conversion -Wno-maybe-uninitialized -DFORCE_VECTORIZATION -J./obj -I./obj -I.  -I. -I./setup -c -o obj/read_kernels.tomo.o src/tomography/read_kernels.f90
gfortran  -O3 -std=gnu -Wall -Wno-conversion -Wno-maybe-uninitialized -DFORCE_VECTORIZATION -J./obj -I./obj -I.  -I. -I./setup -c -o obj/read_kernels_cg.tomo.o src/tomography/read_kernels_cg.f90
gfortran  -O3 -std=gnu -Wall -Wno-conversion -Wno-maybe-uninitialized -DFORCE_VECTORIZATION -J./obj -I./obj -I.  -I. -I./setup -c -o obj/read_model.tomo.o src/tomography/read_model.f90
gfortran  -O3 -std=gnu -Wall -Wno-conversion -Wno-maybe-uninitialized -DFORCE_VECTORIZATION -J./obj -I./obj -I.  -I. -I./setup -c -o obj/read_parameters_tomo.tomo.o src/tomography/read_parameters_tomo.f90
gfortran  -O3 -std=gnu -Wall -Wno-conversion -Wno-maybe-uninitialized -DFORCE_VECTORIZATION -J./obj -I./obj -I.  -I. -I./setup -c -o obj/write_gradient.tomo.o src/tomography/write_gradient.f90
gfortran  -O3 -std=gnu -Wall -Wno-conversion -Wno-maybe-uninitialized -DFORCE_VECTORIZATION -J./obj -I./obj -I.  -I. -I./setup -c -o obj/write_new_model.tomo.o src/tomography/write_new_model.f90
gfortran  -O3 -std=gnu -Wall -Wno-conversion -Wno-maybe-uninitialized -DFORCE_VECTORIZATION -J./obj -I./obj -I.  -I. -I./setup -c -o obj/write_new_model_perturbations.tomo.o src/tomography/write_new_model_perturbations.f90
gfortran  -O3 -std=gnu -Wall -Wno-conversion -Wno-maybe-uninitialized -DFORCE_VECTORIZATION -J./obj -I./obj -I.  -I. -I./setup -c -o obj/add_model_tiso.tomo.o src/tomography/add_model_tiso.f90
gfortran  -O3 -std=gnu -Wall -Wno-conversion -Wno-maybe-uninitialized -DFORCE_VECTORIZATION -J./obj -I./obj -I.  -I. -I./setup -c -o obj/add_model_tiso_cg.tomo.o src/tomography/add_model_tiso_cg.f90
gfortran  -O3 -std=gnu -Wall -Wno-conversion -Wno-maybe-uninitialized -DFORCE_VECTORIZATION -J./obj -I./obj -I.  -I. -I./setup -c -o obj/add_model_tiso_iso.tomo.o src/tomography/add_model_tiso_iso.f90
gfortran  -O3 -std=gnu -Wall -Wno-conversion -Wno-maybe-uninitialized -DFORCE_VECTORIZATION -J./obj -I./obj -I.  -I. -I./setup -c -o obj/sum_kernels.tomo.o src/tomography/sum_kernels.F90
gfortran  -O3 -std=gnu -Wall -Wno-conversion -Wno-maybe-uninitialized -DFORCE_VECTORIZATION -J./obj -I./obj -I.  -I. -I./setup -c -o obj/sum_preconditioned_kernels.tomo.o src/tomography/sum_preconditioned_kernels.f90
gfortran  -O3 -std=gnu -Wall -Wno-conversion -Wno-maybe-uninitialized -DFORCE_VECTORIZATION -J./obj -I./obj -I.  -I. -I./setup -c -o obj/compute_arrays_source.solverstatic.o src/specfem3D/compute_arrays_source.f90
mpif90  -O3 -std=gnu -Wall -Wno-conversion -Wno-maybe-uninitialized -DFORCE_VECTORIZATION -o bin/xaddition_sem obj/postprocess_par.postprocess_module.o obj/addition_sem.postprocess.o obj/shared_par.shared_module.o obj/parallel.sharedmpi.o obj/exit_mpi.shared.o obj/param_reader.cc.o obj/read_parameter_file.shared.o obj/read_value_parameters.shared.o
mpif90  -O3 -std=gnu -Wall -Wno-conversion -Wno-maybe-uninitialized -DFORCE_VECTORIZATION -o bin/xclip_sem obj/postprocess_par.postprocess_module.o obj/parse_kernel_names.postprocess.o obj/clip_sem.postprocess.o obj/shared_par.shared_module.o obj/parallel.sharedmpi.o obj/param_reader.cc.o obj/read_parameter_file.shared.o obj/read_value_parameters.shared.o  
mpif90  -O3 -std=gnu -Wall -Wno-conversion -Wno-maybe-uninitialized -DFORCE_VECTORIZATION -o bin/xcombine_sem obj/postprocess_par.postprocess_module.o obj/parse_kernel_names.postprocess.o obj/combine_sem.postprocess.o obj/shared_par.shared_module.o obj/parallel.sharedmpi.o obj/param_reader.cc.o obj/read_parameter_file.shared.o obj/read_value_parameters.shared.o  
[...]
mpif90  -O3 -std=gnu -Wall -Wno-conversion -Wno-maybe-uninitialized -DFORCE_VECTORIZATION -o bin/xadd_model_tiso obj/add_model_tiso.tomo.o obj/tomography_par.tomo_module.o obj/compute_kernel_integral.tomo.o obj/get_cg_direction.tomo.o obj/get_sd_direction.tomo.o obj/read_kernels.tomo.o obj/read_kernels_cg.tomo.o obj/read_model.tomo.o obj/read_parameters_tomo.tomo.o obj/write_gradient.tomo.o obj/write_new_model.tomo.o obj/write_new_model_perturbations.tomo.o obj/shared_par.shared_module.o obj/parallel.sharedmpi.o obj/exit_mpi.shared.o obj/gll_library.shared.o obj/param_reader.cc.o obj/read_parameter_file.shared.o obj/read_value_parameters.shared.o  
mpif90  -O3 -std=gnu -Wall -Wno-conversion -Wno-maybe-uninitialized -DFORCE_VECTORIZATION -o bin/xadd_model_tiso_cg obj/add_model_tiso_cg.tomo.o obj/tomography_par.tomo_module.o obj/compute_kernel_integral.tomo.o obj/get_cg_direction.tomo.o obj/get_sd_direction.tomo.o obj/read_kernels.tomo.o obj/read_kernels_cg.tomo.o obj/read_model.tomo.o obj/read_parameters_tomo.tomo.o obj/write_gradient.tomo.o obj/write_new_model.tomo.o obj/write_new_model_perturbations.tomo.o obj/shared_par.shared_module.o obj/parallel.sharedmpi.o obj/exit_mpi.shared.o obj/gll_library.shared.o obj/param_reader.cc.o obj/read_parameter_file.shared.o obj/read_value_parameters.shared.o  
mpif90  -O3 -std=gnu -Wall -Wno-conversion -Wno-maybe-uninitialized -DFORCE_VECTORIZATION -o bin/xadd_model_tiso_iso obj/add_model_tiso_iso.tomo.o obj/tomography_par.tomo_module.o obj/compute_kernel_integral.tomo.o obj/get_cg_direction.tomo.o obj/get_sd_direction.tomo.o obj/read_kernels.tomo.o obj/read_kernels_cg.tomo.o obj/read_model.tomo.o obj/read_parameters_tomo.tomo.o obj/write_gradient.tomo.o obj/write_new_model.tomo.o obj/write_new_model_perturbations.tomo.o obj/shared_par.shared_module.o obj/parallel.sharedmpi.o obj/exit_mpi.shared.o obj/gll_library.shared.o obj/param_reader.cc.o obj/read_parameter_file.shared.o obj/read_value_parameters.shared.o  
mpif90  -O3 -std=gnu -Wall -Wno-conversion -Wno-maybe-uninitialized -DFORCE_VECTORIZATION -o bin/xsum_kernels obj/tomography_par.tomo_module.o obj/sum_kernels.tomo.o obj/shared_par.shared_module.o obj/parallel.sharedmpi.o obj/param_reader.cc.o obj/read_parameter_file.shared.o obj/read_value_parameters.shared.o  
mpif90  -O3 -std=gnu -Wall -Wno-conversion -Wno-maybe-uninitialized -DFORCE_VECTORIZATION -o bin/xsum_preconditioned_kernels obj/tomography_par.tomo_module.o obj/sum_preconditioned_kernels.tomo.o obj/shared_par.shared_module.o obj/parallel.sharedmpi.o obj/param_reader.cc.o obj/read_parameter_file.shared.o obj/read_value_parameters.shared.o  

building xspecfem3D 

mpif90  -O3 -std=gnu -Wall -Wno-conversion -Wno-maybe-uninitialized -DFORCE_VECTORIZATION -o ./bin/xspecfem3D ./obj/assemble_MPI_scalar.solver.o ./obj/assemble_MPI_vector.solver.o ./obj/comp_source_spectrum.solver.o ./obj/compute_adj_source_frechet.solver.o ./obj/convert_time.solver.o ./obj/define_derivation_matrices.solver.o ./obj/file_io_threads.cc.o ./obj/force_ftz.cc.o ./obj/get_backazimuth.solver.o ./obj/get_cmt.solver.o ./obj/get_force.solver.o ./obj/get_event_info.solver.o ./obj/make_gravity.solver.o ./obj/netlib_specfun_erf.solver.o  ./obj/asdf_data.solverstatic_module.o ./obj/comp_source_time_function.solverstatic.o ./obj/specfem3D_par.solverstatic_module.o ./obj/write_seismograms.solverstatic.o ./obj/check_stability.solverstatic.o ./obj/compute_add_sources.solverstatic.o ./obj/compute_arrays_source.solverstatic.o ./obj/compute_boundary_kernel.solverstatic.o ./obj/compute_coupling.solverstatic.o ./obj/compute_element.solverstatic.o ./obj/compute_element_att_memory.solverstatic.o ./obj/compute_element_strain.solverstatic.o ./obj/compute_forces_acoustic_calling_routine.solverstatic.o ./obj/compute_forces_viscoelastic_calling_routine.solverstatic.o ./obj/compute_forces_crust_mantle_noDev.solverstatic.o ./obj/compute_forces_crust_mantle_Dev.solverstatic.o ./obj/compute_forces_inner_core_noDev.solverstatic.o ./obj/compute_forces_inner_core_Dev.solverstatic.o ./obj/compute_forces_outer_core_noDev.solverstatic.o ./obj/compute_forces_outer_core_Dev.solverstatic.o ./obj/compute_kernels.solverstatic.o ./obj/compute_seismograms.solverstatic.o ./obj/compute_stacey_crust_mantle.solverstatic.o ./obj/compute_stacey_outer_core.solverstatic.o ./obj/finalize_simulation.solverstatic.o ./obj/get_attenuation.solverstatic.o ./obj/initialize_simulation.solverstatic.o ./obj/iterate_time.solverstatic.o ./obj/iterate_time_undoatt.solverstatic.o ./obj/locate_receivers.solverstatic.o ./obj/locate_regular_points.solverstatic.o ./obj/locate_sources.solverstatic.o ./obj/multiply_arrays_source.solverstatic.o ./obj/noise_tomography.solverstatic.o ./obj/prepare_attenuation.solverstatic.o ./obj/prepare_elastic_elements.solverstatic.o ./obj/prepare_gpu.solverstatic.o ./obj/prepare_gravity.solverstatic.o ./obj/prepare_movie.solverstatic.o ./obj/prepare_noise.solverstatic.o ./obj/prepare_oceans.solverstatic.o ./obj/prepare_optimized_arrays.solverstatic.o ./obj/prepare_stacey.solverstatic.o ./obj/prepare_timerun.solverstatic.o ./obj/prepare_vtk_window.solverstatic.o ./obj/prepare_wavefields.solverstatic.o ./obj/print_stf_file.solverstatic.o ./obj/read_adjoint_sources.solverstatic.o ./obj/read_arrays_solver.solverstatic.o ./obj/read_forward_arrays.solverstatic.o ./obj/read_mesh_databases.solverstatic.o ./obj/read_topography_bathymetry.solverstatic.o ./obj/save_forward_arrays.solverstatic.o ./obj/save_kernels.solverstatic.o ./obj/save_regular_kernels.solverstatic.o ./obj/setup_GLL_points.solverstatic.o ./obj/setup_sources_receivers.solverstatic.o ./obj/specfem3D.solverstatic.o ./obj/update_displacement_LDDRK.solverstatic.o ./obj/update_displacement_Newmark.solverstatic.o ./obj/write_movie_output.solverstatic.o ./obj/write_movie_volume.solverstatic.o ./obj/write_movie_surface.solverstatic.o ./obj/write_output_ASCII.solverstatic.o ./obj/write_output_SAC.solverstatic.o  ./obj/specfem3D_gpu_method_stubs.cc.o   ./obj/visual_vtk_stubs.visualc.o  ./obj/shared_par.shared_module.o ./obj/adios_manager.shared_adios_module.o ./obj/auto_ner.shared.o ./obj/binary_c_io.cc.o ./obj/broadcast_computed_parameters.shared.o ./obj/calendar.shared.o ./obj/count_elements.shared.o ./obj/count_number_of_sources.shared.o ./obj/count_points.shared.o ./obj/create_name_database.shared.o ./obj/define_all_layers.shared.o ./obj/exit_mpi.shared.o ./obj/flush_system.shared.o ./obj/get_model_parameters.shared.o ./obj/get_timestep_and_layers.shared.o ./obj/gll_library.shared.o ./obj/hex_nodes.shared.o ./obj/init_openmp.shared.o ./obj/intgrl.shared.o ./obj/lagrange_poly.shared.o ./obj/make_ellipticity.shared.o ./obj/model_prem.shared.o ./obj/model_topo_bathy.shared.o ./obj/parallel.sharedmpi.o ./obj/param_reader.cc.o ./obj/read_compute_parameters.shared.o ./obj/read_parameter_file.shared.o ./obj/read_value_parameters.shared.o ./obj/recompute_jacobian.shared.o ./obj/reduce.shared.o ./obj/rthetaphi_xyz.shared.o ./obj/spline_routines.shared.o ./obj/write_VTK_file.shared.o  ./obj/adios_method_stubs.cc.o  ./obj/asdf_method_stubs.cc.o     


  running script...


Thu Jan 17 23:14:59 CET 2019
starting MPI mesher on 4 processors

  mesher done: Thu Jan 17 23:15:38 CET 2019


Thu Jan 17 23:15:40 CET 2019
starting run in current directory /Users/Shared/SPECFEM3D_GLOBE/EXAMPLES/regional_s40rts

finished successfully
Thu Jan 17 23:16:20 CET 2019

  creating movie files...


 reading parameter file

 1 = create files in OpenDX format
 2 = create files in AVS UCD format with individual files
 3 = create files in AVS UCD format with one time-dependent file
 4 = create files in GMT xyz Ascii long/lat/U format
 any other value = exit

 enter value:
 movie frames have been saved every          200  time steps

 enter first time step of movie (e.g. 1)
 enter last time step of movie (e.g.         4100 or -1 for all)
 enter component (e.g. 1=Z, 2=N, 3=E)

 --------


 Recombining all movie frames to create a movie


 There are            4  slices numbered from 0 to            3


 Allocating arrays for reading data of size         6400 =  0.146484375     MB


 looping from            1  to         4100  every          200  time steps

 total number of frames will be           20

 there are a total of         4096  OpenDX "elements" at the surface


 Allocating arrays of size        16384



 reading snapshot time step          200  out of         4100

   file ./OUTPUT_FILES//moviedata000200

   data ux min/max:   -6.34833705E-05   1.70473741E-05
   data uy min/max:   -4.09926179E-05   3.41348277E-05
   data uz min/max:   -3.04551304E-05   2.23836341E-05


 minimum amplitude in current snapshot =   -1.4115334124653600E-005
 maximum amplitude in current snapshot =    3.6160067793389317E-006

 sorting... 
 sorting list of points

 found a total of         4225  points
 initial number of points (with multiples) was        16384

 reading snapshot time step          400  out of         4100

   file ./OUTPUT_FILES//moviedata000400

   data ux min/max:   -1.41030367E-04   9.01720487E-05
   data uy min/max:   -1.37531621E-04   1.10168468E-04
   data uz min/max:   -7.51702682E-05   7.06321298E-05


 minimum amplitude in current snapshot =   -1.9412611436564475E-005
 maximum amplitude in current snapshot =    1.8684781025513075E-005

 sorting... 
 sorting list of points

 found a total of         4225  points
 initial number of points (with multiples) was        16384

 reading snapshot time step          600  out of         4100

   file ./OUTPUT_FILES//moviedata000600

   data ux min/max:   -2.17753714E-05   2.23581992E-05
   data uy min/max:   -2.69824650E-05   2.14000374E-05
   data uz min/max:   -1.70299263E-05   1.45790891E-05


 minimum amplitude in current snapshot =   -1.3148704056220595E-005
 maximum amplitude in current snapshot =    1.1184387403773144E-005

 sorting... 
 sorting list of points

 found a total of         4225  points
 initial number of points (with multiples) was        16384

 reading snapshot time step          800  out of         4100

   file ./OUTPUT_FILES//moviedata000800

   data ux min/max:   -1.96037472E-05   2.45018073E-05
   data uy min/max:   -2.01696566E-05   2.09918562E-05
   data uz min/max:   -1.07630703E-05   1.14936192E-05


 minimum amplitude in current snapshot =   -1.0639270840329118E-005
 maximum amplitude in current snapshot =    8.5295778262661770E-006

 sorting... 
 sorting list of points

 found a total of         4225  points
 initial number of points (with multiples) was        16384

 reading snapshot time step         1000  out of         4100

   file ./OUTPUT_FILES//moviedata001000

   data ux min/max:   -1.69197883E-05   1.95121411E-05
   data uy min/max:   -2.10032413E-05   1.60107120E-05
   data uz min/max:   -1.08503264E-05   9.07617778E-06


 minimum amplitude in current snapshot =   -6.3934458012226969E-006
 maximum amplitude in current snapshot =    6.3971860981837381E-006

 sorting... 
 sorting list of points

 found a total of         4225  points
 initial number of points (with multiples) was        16384

 reading snapshot time step         1200  out of         4100

   file ./OUTPUT_FILES//moviedata001200

   data ux min/max:   -1.33314243E-05   1.70385811E-05
   data uy min/max:   -1.56615260E-05   1.38244350E-05
   data uz min/max:   -9.02513602E-06   7.93069376E-06


 minimum amplitude in current snapshot =   -5.9062354011985008E-006
 maximum amplitude in current snapshot =    6.9818624979234301E-006

 sorting... 
 sorting list of points

 found a total of         4225  points
 initial number of points (with multiples) was        16384

 reading snapshot time step         1400  out of         4100

   file ./OUTPUT_FILES//moviedata001400

   data ux min/max:   -1.04944111E-05   1.39562444E-05
   data uy min/max:   -1.39252779E-05   1.29938708E-05
   data uz min/max:   -7.61807496E-06   6.66401775E-06


 minimum amplitude in current snapshot =   -4.8381025408161804E-006
 maximum amplitude in current snapshot =    5.1393885769357439E-006

 sorting... 
 sorting list of points

 found a total of         4225  points
 initial number of points (with multiples) was        16384

 reading snapshot time step         1600  out of         4100

   file ./OUTPUT_FILES//moviedata001600

   data ux min/max:   -1.05606996E-05   1.27119129E-05
   data uy min/max:   -1.35270493E-05   1.06162588E-05
   data uz min/max:   -7.45961870E-06   5.57652493E-06


 minimum amplitude in current snapshot =   -4.3990776248392649E-006
 maximum amplitude in current snapshot =    4.2199162635370158E-006

 sorting... 
 sorting list of points

 found a total of         4225  points
 initial number of points (with multiples) was        16384

 reading snapshot time step         1800  out of         4100

   file ./OUTPUT_FILES//moviedata001800

   data ux min/max:   -9.70129986E-06   1.09069524E-05
   data uy min/max:   -1.19123861E-05   1.02792383E-05
   data uz min/max:   -6.72090300E-06   5.25809310E-06


 minimum amplitude in current snapshot =   -3.9821320569899399E-006
 maximum amplitude in current snapshot =    4.0160948628908955E-006

 sorting... 
 sorting list of points

 found a total of         4225  points
 initial number of points (with multiples) was        16384

 reading snapshot time step         2000  out of         4100

   file ./OUTPUT_FILES//moviedata002000

   data ux min/max:   -8.66808750E-06   1.00256293E-05
   data uy min/max:   -1.14409086E-05   8.83430403E-06
   data uz min/max:   -5.29674435E-06   4.60438241E-06


 minimum amplitude in current snapshot =   -3.6937649383617099E-006
 maximum amplitude in current snapshot =    3.6315493616712047E-006

 sorting... 
 sorting list of points

 found a total of         4225  points
 initial number of points (with multiples) was        16384

 reading snapshot time step         2200  out of         4100

   file ./OUTPUT_FILES//moviedata002200

   data ux min/max:   -7.53878930E-06   9.76119645E-06
   data uy min/max:   -1.03605989E-05   8.70485474E-06
   data uz min/max:   -5.01683917E-06   4.04106595E-06


 minimum amplitude in current snapshot =   -2.9822265332768438E-006
 maximum amplitude in current snapshot =    3.4338895602559205E-006

 sorting... 
 sorting list of points

 found a total of         4225  points
 initial number of points (with multiples) was        16384

 reading snapshot time step         2400  out of         4100

   file ./OUTPUT_FILES//moviedata002400

   data ux min/max:   -8.80817879E-06   1.10567325E-05
   data uy min/max:   -1.04465380E-05   8.63711193E-06
   data uz min/max:   -6.48442847E-06   3.90017294E-06


 minimum amplitude in current snapshot =   -2.8998390462220414E-006
 maximum amplitude in current snapshot =    3.8139364733069669E-006

 sorting... 
 sorting list of points

 found a total of         4225  points
 initial number of points (with multiples) was        16384

 reading snapshot time step         2600  out of         4100

   file ./OUTPUT_FILES//moviedata002600

   data ux min/max:   -8.11835434E-06   8.89016155E-06
   data uy min/max:   -9.83729569E-06   7.99360896E-06
   data uz min/max:   -4.89422291E-06   3.56054670E-06


 minimum amplitude in current snapshot =   -2.6271090973750688E-006
 maximum amplitude in current snapshot =    3.0231885830289684E-006

 sorting... 
 sorting list of points

 found a total of         4225  points
 initial number of points (with multiples) was        16384

 reading snapshot time step         2800  out of         4100

   file ./OUTPUT_FILES//moviedata002800

   data ux min/max:   -7.33835259E-06   8.58182011E-06
   data uy min/max:   -9.00342457E-06   7.58806073E-06
   data uz min/max:   -4.34579079E-06   3.20178424E-06


 minimum amplitude in current snapshot =   -2.3394059098791331E-006
 maximum amplitude in current snapshot =    3.4090498957084492E-006

 sorting... 
 sorting list of points

 found a total of         4225  points
 initial number of points (with multiples) was        16384

 reading snapshot time step         3000  out of         4100

   file ./OUTPUT_FILES//moviedata003000

   data ux min/max:   -5.86110491E-06   7.56646432E-06
   data uy min/max:   -9.10597009E-06   6.91582272E-06
   data uz min/max:   -4.21759205E-06   3.07833511E-06


 minimum amplitude in current snapshot =   -2.4898747597035253E-006
 maximum amplitude in current snapshot =    2.9420625651255250E-006

 sorting... 
 sorting list of points

 found a total of         4225  points
 initial number of points (with multiples) was        16384

 reading snapshot time step         3200  out of         4100

   file ./OUTPUT_FILES//moviedata003200

   data ux min/max:   -5.30447323E-06   7.65869754E-06
   data uy min/max:   -8.64499725E-06   7.60758849E-06
   data uz min/max:   -4.10836765E-06   3.16273281E-06


 minimum amplitude in current snapshot =   -2.3442087240255205E-006
 maximum amplitude in current snapshot =    3.8236353248066735E-006

 sorting... 
 sorting list of points

 found a total of         4225  points
 initial number of points (with multiples) was        16384

 reading snapshot time step         3400  out of         4100

   file ./OUTPUT_FILES//moviedata003400

   data ux min/max:   -5.26001349E-06   7.58998794E-06
   data uy min/max:   -8.34970797E-06   7.06900073E-06
   data uz min/max:   -3.97461736E-06   3.08096560E-06


 minimum amplitude in current snapshot =   -2.5865124371193815E-006
 maximum amplitude in current snapshot =    3.1927816053212155E-006

 sorting... 
 sorting list of points

 found a total of         4225  points
 initial number of points (with multiples) was        16384

 reading snapshot time step         3600  out of         4100

   file ./OUTPUT_FILES//moviedata003600

   data ux min/max:   -5.49708375E-06   7.06899209E-06
   data uy min/max:   -7.62774152E-06   7.01875751E-06
   data uz min/max:   -3.93726668E-06   2.94054576E-06


 minimum amplitude in current snapshot =   -1.9206511296943063E-006
 maximum amplitude in current snapshot =    2.4270275389426388E-006

 sorting... 
 sorting list of points

 found a total of         4225  points
 initial number of points (with multiples) was        16384

 reading snapshot time step         3800  out of         4100

   file ./OUTPUT_FILES//moviedata003800

   data ux min/max:   -5.21382981E-06   7.05061211E-06
   data uy min/max:   -7.10017002E-06   6.95791869E-06
   data uz min/max:   -4.07846483E-06   3.28273836E-06


 minimum amplitude in current snapshot =   -2.2723243091604672E-006
 maximum amplitude in current snapshot =    2.0961733753210865E-006

 sorting... 
 sorting list of points

 found a total of         4225  points
 initial number of points (with multiples) was        16384

 reading snapshot time step         4000  out of         4100

   file ./OUTPUT_FILES//moviedata004000

   data ux min/max:   -4.80181325E-06   6.32758929E-06
   data uy min/max:   -7.28198256E-06   6.85892928E-06
   data uz min/max:   -3.40996576E-06   2.89475724E-06


 minimum amplitude in current snapshot =   -2.0033683085785015E-006
 maximum amplitude in current snapshot =    1.8146100728699821E-006

 sorting... 
 sorting list of points

 found a total of         4225  points
 initial number of points (with multiples) was        16384

 done creating movie

 AVS files are stored in ./OUTPUT_FILES//AVS_*.inp


Thu Jan 17 23:16:20 CET 2019
