
 ******************************
 **** Specfem3D MPI Solver ****
 ******************************


 Fixing slow underflow trapping problem using small initial field

 There are  4  MPI processes
 Processes are numbered from 0 to  3

 There are  48  elements along xi in each chunk
 There are  48  elements along eta in each chunk

 There are  2  slices along xi in each chunk
 There are  2  slices along eta in each chunk
 There is a total of  4  slices in each chunk
 There are  1  chunks
 There is a total of  4  slices in all the chunks

 NDIM =  3

 NGLLX =  5
 NGLLY =  5
 NGLLZ =  5

 using single precision for the calculations

 smallest and largest possible floating-point numbers are:  1.175494351E-38,  3.402823466E+38

 model: 1D_isotropic_prem
   incorporating the oceans using equivalent load
   incorporating ellipticity
   incorporating surface topography
   incorporating self-gravitation (Cowling approximation)
   incorporating rotation
   incorporating attenuation using  3  standard linear solids

   no 3-D lateral variations
   no heterogeneities in the mantle
   no crustal variations
   using unmodified 1D crustal model with two layers
   no transverse isotropy
   no inner-core anisotropy
   no general mantle anisotropy


 mesh databases:
   reading in crust/mantle databases...
   reading in outer core databases...
   reading in inner core databases...
   reading in coupling surface databases...
   reading in addressing...
   reading in MPI databases...
   for overlapping of communications with calculations:

   percentage of edge elements in crust/mantle  14.714715 %
   percentage of volume elements in crust/mantle  85.2852859 %

   percentage of edge elements in outer core  36.625515 %
   percentage of volume elements in outer core  63.374485 %

   percentage of edge elements in inner core  55.5555534 %
   percentage of volume elements in inner core  44.4444466 %

   reading in Stacey databases...

 Elapsed time for reading mesh in seconds =  1.67124891

 topography:
   topography/bathymetry: min/max =  -7747,  5507

 Elapsed time for reading topo/bathy in seconds =  0.308184147


 sources:

 *************************************
  locating source  1
 *************************************

 source located in slice  0
                in element  1

    xi coordinate of source in that element:  -1.1000000000000001
   eta coordinate of source in that element:  -1.1000000000000001
 gamma coordinate of source in that element:  -1.1000000000000001

 Source time function is a Heaviside, convolve later


  half duration:  0.  seconds
     time shift:  0.  seconds

 magnitude of the source:
      scalar moment M0 =  0.  dyne-cm
   moment magnitude Mw =  0.


 original (requested) position of the source:

       latitude:  0.
      longitude:  0.
          depth:  0.  km

 position of the source that will be used:

       latitude:  30.591150190349605
      longitude:  14.94375064121698
          depth:  43.256340245358423  km

 Error in location of the source:  3669.39478  km

 *****************************************************
 *****************************************************
 ***** WARNING: source location estimate is poor *****
 *****************************************************
 *****************************************************

 maximum error in location of the sources:  3669.39478  km


 Elapsed time for detection of sources in seconds =  1.54471397399902344E-2

 End of source detection - done

 noise simulation will ignore CMT sources

 receivers:

 Total number of receivers =  2


 ********************
  locating receivers
 ********************

 reading receiver information...

 Stations sorted by epicentral distance:
 Station #     2:                  XS.S001    epicentral distance:      8.727949 degrees
 Station #     1:                   GE.ZKR    epicentral distance:     10.497499 degrees

 maximum error in location of all the receivers:  3.336436379E-12  km

 Elapsed time for receiver detection in seconds =  3.68659496307373047E-2

 End of receiver detection - done


 found a total of  2  receivers in all slices
 this total is okay

 source arrays:
   number of sources is  1
   size of source array                 =  1.430511475E-3 MB
                                        =  1.396983862E-6 GB

 seismograms:
   seismograms written by all processes
   writing out seismograms at every NTSTEP_BETWEEN_OUTPUT_SEISMOS =  3599
   maximum number of local receivers is  1  in slice  1
   size of maximum seismogram array       =  4.118728638E-2 MB
                                          =  4.022195935E-5 GB


 Total number of samples for seismograms =  3599


 Reference radius of the Earth used is  6371.  km


 incorporating the oceans using equivalent load

 incorporating ellipticity

 incorporating surface topography

 incorporating self-gravitation (Cowling approximation)

 incorporating rotation

 incorporating attenuation using  3  standard linear solids
 mimicking effects on velocity only



 preparing mass matrices
 preparing constants
 preparing gravity arrays
 preparing attenuation
 preparing wavefields
 preparing absorbing boundaries
 preparing noise arrays
   NOISE_TOMOGRAPHY =  1
   timing:
     start time           =  0.  seconds
     time step            =  0.169376865  s
     number of time steps =  3599
   ignoring CMT sources
   noise source uses master record id =  2
   noise master station: XS.S001


 Elapsed time for preparing timerun in seconds =  2.71140409


 time loop:

               scheme:         Newmark
            time step:  0.169376865  s
 number of time steps:  3599
 total simulated time:  10.1569653  minutes
 start time          : 0.  seconds

 All processes are synchronized before time loop

 Starting time iteration loop...

 Time step #  5
 Time:  1.129179075E-2  minutes
 Max norm displacement vector U in solid in all slices for forward prop. (m) =  1.141773416E-12
 Max non-dimensional potential Ufluid in fluid in all slices for forward prop. =  1.00047945E-24
 Max of strain, eps_trace_over_3_crust_mantle = 2.582876095E-16
 Max of strain, epsilondev_crust_mantle  = 3.530246977E-16
 Elapsed time in seconds =  0.2825930118560791
 Elapsed time in hh:mm:ss =      0 h 00 m 00 s
 Mean elapsed time per time step in seconds =  5.65186023712158231E-2
 Time steps done =  5  out of  3599
 Time steps remaining =  3594
 Estimated remaining time in seconds =  203.12785692214968
 Estimated remaining time in hh:mm:ss =      0 h 03 m 23 s
 Estimated total run time in seconds =  203.41044993400575
 Estimated total run time in hh:mm:ss =      0 h 03 m 23 s
 We have done  0.138927475 % of that
 The run will finish approximately on (in local time): Sun Jul 05, 2015 22:32
 ************************************************************
 **** BEWARE: the above time estimates are not reliable
 **** because fewer than 100 iterations have been performed
 ************************************************************

 Time step #  500
 Time:  1.40865088  minutes
 Max norm displacement vector U in solid in all slices for forward prop. (m) =  4.975897472E-10
 Max non-dimensional potential Ufluid in fluid in all slices for forward prop. =  1.092080893E-24
 Max of strain, eps_trace_over_3_crust_mantle = 8.753586607E-15
 Max of strain, epsilondev_crust_mantle  = 1.64882722E-14
 Elapsed time in seconds =  34.776770830154419
 Elapsed time in hh:mm:ss =      0 h 00 m 34 s
 Mean elapsed time per time step in seconds =  6.95535416603088458E-2
 Time steps done =  500  out of  3599
 Time steps remaining =  3099
 Estimated remaining time in seconds =  215.54642560529706
 Estimated remaining time in hh:mm:ss =      0 h 03 m 35 s
 Estimated total run time in seconds =  250.32319643545148
 Estimated total run time in hh:mm:ss =      0 h 04 m 10 s
 We have done  13.8927479 % of that
 The run will finish approximately on (in local time): Sun Jul 05, 2015 22:34

 Time step #  1000
 Time:  2.82012463  minutes
 Max norm displacement vector U in solid in all slices for forward prop. (m) =  9.982715765E-10
 Max non-dimensional potential Ufluid in fluid in all slices for forward prop. =  1.183453469E-24
 Max of strain, eps_trace_over_3_crust_mantle = 3.438536687E-14
 Max of strain, epsilondev_crust_mantle  = 5.286420715E-14
 Elapsed time in seconds =  69.94011378288269
 Elapsed time in hh:mm:ss =      0 h 01 m 09 s
 Mean elapsed time per time step in seconds =  6.99401137828826874E-2
 Time steps done =  1000  out of  3599
 Time steps remaining =  2599
 Estimated remaining time in seconds =  181.77435572171211
 Estimated remaining time in hh:mm:ss =      0 h 03 m 01 s
 Estimated total run time in seconds =  251.7144695045948
 Estimated total run time in hh:mm:ss =      0 h 04 m 11 s
 We have done  27.7854958 % of that
 The run will finish approximately on (in local time): Sun Jul 05, 2015 22:33

 Time step #  1500
 Time:  4.23159838  minutes
 Max norm displacement vector U in solid in all slices for forward prop. (m) =  6.712798761E-9
 Max non-dimensional potential Ufluid in fluid in all slices for forward prop. =  3.83177904E-24
 Max of strain, eps_trace_over_3_crust_mantle = 7.015328802E-14
 Max of strain, epsilondev_crust_mantle  = 2.213845562E-13
 Elapsed time in seconds =  104.66220092773438
 Elapsed time in hh:mm:ss =      0 h 01 m 44 s
 Mean elapsed time per time step in seconds =  6.97748006184895769E-2
 Time steps done =  1500  out of  3599
 Time steps remaining =  2099
 Estimated remaining time in seconds =  146.45730649820962
 Estimated remaining time in hh:mm:ss =      0 h 02 m 26 s
 Estimated total run time in seconds =  251.11950742594399
 Estimated total run time in hh:mm:ss =      0 h 04 m 11 s
 We have done  41.6782455 % of that
 The run will finish approximately on (in local time): Sun Jul 05, 2015 22:33

 Time step #  2000
 Time:  5.64307261  minutes
 Max norm displacement vector U in solid in all slices for forward prop. (m) =  3.350817579E-8
 Max non-dimensional potential Ufluid in fluid in all slices for forward prop. =  6.034691514E-22
 Max of strain, eps_trace_over_3_crust_mantle = 5.659275132E-13
 Max of strain, epsilondev_crust_mantle  = 1.23151489E-12
 Elapsed time in seconds =  139.45679593086243
 Elapsed time in hh:mm:ss =      0 h 02 m 19 s
 Mean elapsed time per time step in seconds =  6.97283979654312186E-2
 Time steps done =  2000  out of  3599
 Time steps remaining =  1599
 Estimated remaining time in seconds =  111.49570834672451
 Estimated remaining time in hh:mm:ss =      0 h 01 m 51 s
 Estimated total run time in seconds =  250.95250427758694
 Estimated total run time in hh:mm:ss =      0 h 04 m 10 s
 We have done  55.5709915 % of that
 The run will finish approximately on (in local time): Sun Jul 05, 2015 22:34

 Time step #  2500
 Time:  7.05454636  minutes
 Max norm displacement vector U in solid in all slices for forward prop. (m) =  8.716785516E-9
 Max non-dimensional potential Ufluid in fluid in all slices for forward prop. =  1.167205866E-21
 Max of strain, eps_trace_over_3_crust_mantle = 2.096729908E-13
 Max of strain, epsilondev_crust_mantle  = 5.7610622E-13
 Elapsed time in seconds =  174.26060485839844
 Elapsed time in hh:mm:ss =      0 h 02 m 54 s
 Mean elapsed time per time step in seconds =  6.97042419433593768E-2
 Time steps done =  2500  out of  3599
 Time steps remaining =  1099
 Estimated remaining time in seconds =  76.604961895751956
 Estimated remaining time in hh:mm:ss =      0 h 01 m 16 s
 Estimated total run time in seconds =  250.86556675415039
 Estimated total run time in hh:mm:ss =      0 h 04 m 10 s
 We have done  69.4637375 % of that
 The run will finish approximately on (in local time): Sun Jul 05, 2015 22:33

 Time step #  3000
 Time:  8.46601963  minutes
 Max norm displacement vector U in solid in all slices for forward prop. (m) =  6.115147055E-9
 Max non-dimensional potential Ufluid in fluid in all slices for forward prop. =  2.579517908E-21
 Max of strain, eps_trace_over_3_crust_mantle = 1.337248319E-13
 Max of strain, epsilondev_crust_mantle  = 3.990883145E-13
 Elapsed time in seconds =  209.13913083076477
 Elapsed time in hh:mm:ss =      0 h 03 m 29 s
 Mean elapsed time per time step in seconds =  6.97130436102549184E-2
 Time steps done =  3000  out of  3599
 Time steps remaining =  599
 Estimated remaining time in seconds =  41.758113122542696
 Estimated remaining time in hh:mm:ss =      0 h 00 m 41 s
 Estimated total run time in seconds =  250.89724395330745
 Estimated total run time in hh:mm:ss =      0 h 04 m 10 s
 We have done  83.3564911 % of that
 The run will finish approximately on (in local time): Sun Jul 05, 2015 22:34

 Time step #  3500
 Time:  9.87749386  minutes
 Max norm displacement vector U in solid in all slices for forward prop. (m) =  4.960415634E-9
 Max non-dimensional potential Ufluid in fluid in all slices for forward prop. =  1.727002062E-20
 Max of strain, eps_trace_over_3_crust_mantle = 1.04320815E-13
 Max of strain, epsilondev_crust_mantle  = 3.310747943E-13
 Elapsed time in seconds =  243.91132783889771
 Elapsed time in hh:mm:ss =      0 h 04 m 03 s
 Mean elapsed time per time step in seconds =  6.96889508111136341E-2
 Time steps done =  3500  out of  3599
 Time steps remaining =  99
 Estimated remaining time in seconds =  6.8992061303002501
 Estimated remaining time in hh:mm:ss =      0 h 00 m 06 s
 Estimated total run time in seconds =  250.81053396919796
 Estimated total run time in hh:mm:ss =      0 h 04 m 10 s
 We have done  97.2492371 % of that
 The run will finish approximately on (in local time): Sun Jul 05, 2015 22:33

 Time step #  3599
 Time:  10.1569653  minutes
 Max norm displacement vector U in solid in all slices for forward prop. (m) =  4.824637578E-9
 Max non-dimensional potential Ufluid in fluid in all slices for forward prop. =  1.551339596E-20
 Max of strain, eps_trace_over_3_crust_mantle = 9.942308749E-14
 Max of strain, epsilondev_crust_mantle  = 3.295840434E-13
 Elapsed time in seconds =  250.82989478111267
 Elapsed time in hh:mm:ss =      0 h 04 m 10 s
 Mean elapsed time per time step in seconds =  6.96943303087281668E-2
 Time steps done =  3599  out of  3599
 Time steps remaining =  0
 Estimated remaining time in seconds =  0.
 Estimated remaining time in hh:mm:ss =      0 h 00 m 00 s
 Estimated total run time in seconds =  250.82989478111267
 Estimated total run time in hh:mm:ss =      0 h 04 m 10 s
 We have done  100. % of that


 Total number of time steps written:  3599

 Writing the seismograms in parallel took  0.7718970775604248  seconds

 Time-Loop Complete. Timing info:
 Total elapsed time in seconds =  251.67785692214966
 Total elapsed time in hh:mm:ss =      0 h 04 m 11 s

 End of the simulation

