 
 ****************************
 *** Specfem3D MPI Mesher ***
 ****************************
 
 
 There are  4  MPI processes
 Processes are numbered from 0 to  3
 
 There are  48  elements along xi in each chunk
 There are  48  elements along eta in each chunk
 
 There are  2  slices along xi in each chunk
 There are  2  slices along eta in each chunk
 There is a total of  4  slices in each chunk
 There are  1  chunks in the global mesh
 There is a total of  4  slices in the global mesh
 
 NGLLX =  5
 NGLLY =  5
 NGLLZ =  5
 
 Shape functions defined by NGNOD =  27  control nodes
 Surface shape functions defined by NGNOD2D =  9  control nodes
 
 model: 1D_isotropic_prem
   incorporating the oceans using equivalent load
   incorporating ellipticity
   incorporating surface topography
   incorporating self-gravitation (Cowling approximation)
   incorporating rotation
   incorporating attenuation using  3  standard linear solids
 
   no 3-D lateral variations
   no heterogeneities in the mantle
   no crustal variations
   using unmodified 1D crustal model with two layers
   no anisotropy
   no inner-core anisotropy
   no general mantle anisotropy
 
 Reference radius of the Earth used is  6371.  km
 
 Central cube is at a radius of  935.  km
 creating global slice addressing
 
 
 incorporating topography
   topography/bathymetry: min/max =  -7747,  5507
 
 additional mesh optimizations
 
 moho:
   no element stretching for 3-D moho surface
 
 internal topography 410/660:
   no element stretching for 3-D internal surfaces
 
 
 
 *******************************************
 creating mesh in region  1
 this region is the crust and mantle
 *******************************************
 
 
 first pass
 
   ...allocating arrays 
 
   ...setting up layers 
 
   ...creating mesh elements 
   creating layer  1 out of  11
      9.1%    current clock (NOT elapsed) time is: 22h 29min 25sec
   creating layer  2 out of  11
     18.2%    current clock (NOT elapsed) time is: 22h 29min 25sec
   creating layer  3 out of  11
     27.3%    current clock (NOT elapsed) time is: 22h 29min 25sec
   creating layer  4 out of  11
     36.4%    current clock (NOT elapsed) time is: 22h 29min 25sec
   creating layer  5 out of  11
     45.5%    current clock (NOT elapsed) time is: 22h 29min 25sec
   creating layer  6 out of  11
     54.5%    current clock (NOT elapsed) time is: 22h 29min 25sec
   creating layer  7 out of  11
     63.6%    current clock (NOT elapsed) time is: 22h 29min 25sec
   creating layer  8 out of  11
     72.7%    current clock (NOT elapsed) time is: 22h 29min 25sec
   creating layer  9 out of  11
     81.8%    current clock (NOT elapsed) time is: 22h 29min 25sec
   creating layer  10 out of  11
     90.9%    current clock (NOT elapsed) time is: 22h 29min 25sec
   creating layer  11 out of  11
    100.0%    current clock (NOT elapsed) time is: 22h 29min 25sec
 
 
   ...creating global addressing
 
   ...creating MPI buffers
 
 second pass
 
   ...allocating arrays 
 
   ...setting up layers 
 
   ...creating mesh elements 
   creating layer  1 out of  11
      9.1%    current clock (NOT elapsed) time is: 22h 29min 26sec
   creating layer  2 out of  11
     18.2%    current clock (NOT elapsed) time is: 22h 29min 27sec
   creating layer  3 out of  11
     27.3%    current clock (NOT elapsed) time is: 22h 29min 27sec
   creating layer  4 out of  11
     36.4%    current clock (NOT elapsed) time is: 22h 29min 27sec
   creating layer  5 out of  11
     45.5%    current clock (NOT elapsed) time is: 22h 29min 27sec
   creating layer  6 out of  11
     54.5%    current clock (NOT elapsed) time is: 22h 29min 27sec
   creating layer  7 out of  11
     63.6%    current clock (NOT elapsed) time is: 22h 29min 27sec
   creating layer  8 out of  11
     72.7%    current clock (NOT elapsed) time is: 22h 29min 27sec
   creating layer  9 out of  11
     81.8%    current clock (NOT elapsed) time is: 22h 29min 27sec
   creating layer  10 out of  11
     90.9%    current clock (NOT elapsed) time is: 22h 29min 27sec
   creating layer  11 out of  11
    100.0%    current clock (NOT elapsed) time is: 22h 29min 27sec
 
 
   ...precomputing Jacobian
 
   ...creating chunk buffers
 
 ----- creating chunk buffers -----
 
 There are  2  slices along xi in each chunk
 There are  2  slices along eta in each chunk
 There is a total of  4  slices in each chunk
 There are  1  chunks
 There is a total of  4  slices in all the chunks
 
 There is a total of  2  messages to assemble faces between chunks
 
 
 only one chunk, no need to create chunk buffers
 
 
   ...preparing MPI interfaces
 
 crust/mantle region:
   #max of points in MPI buffers along xi npoin2D_xi =  6341
   #max of array elements transferred npoin2D_xi*NDIM =  19023
 
   #max of points in MPI buffers along eta npoin2D_eta =  6341
   #max of array elements transferred npoin2D_eta*NDIM =  19023
 
 crust mantle MPI:
   maximum interfaces: 3
   MPI addressing maximum interfaces: 3
   MPI addressing : all interfaces okay
 
   total MPI interface points :  51276
   unique MPI interface points:  50180
   maximum valence            :  3
   total unique MPI interface points: 50180
 
 
   ...element inner/outer separation 
 
 for overlapping of communications with calculations:
 
 percentage of edge elements in crust/mantle  14.7147141 %
 percentage of volume elements in crust/mantle  85.2852859 %
 
 
   ...element mesh coloring 
   mesh coloring:  F
 
   ...creating mass matrix
     updates mass matrix with Stacey boundary corrections
     updates mass matrix with ocean load
 
   ...saving binary files
 
    calculated top area:  0.12056545938469153
 calculated bottom area:  3.59782793599717626E-2
 
 *******************************************
 creating mesh in region  2
 this region is the outer core
 *******************************************
 
 
 first pass
 
   ...allocating arrays 
 
   ...setting up layers 
 
   ...creating mesh elements 
   creating layer  1 out of  2
     50.0%    current clock (NOT elapsed) time is: 22h 29min 28sec
   creating layer  2 out of  2
    100.0%    current clock (NOT elapsed) time is: 22h 29min 28sec
 
 
   ...creating global addressing
 
   ...creating MPI buffers
 
 second pass
 
   ...allocating arrays 
 
   ...setting up layers 
 
   ...creating mesh elements 
   creating layer  1 out of  2
     50.0%    current clock (NOT elapsed) time is: 22h 29min 29sec
   creating layer  2 out of  2
    100.0%    current clock (NOT elapsed) time is: 22h 29min 29sec
 
 
   ...precomputing Jacobian
 
   ...creating chunk buffers
 
 ----- creating chunk buffers -----
 
 There are  2  slices along xi in each chunk
 There are  2  slices along eta in each chunk
 There is a total of  4  slices in each chunk
 There are  1  chunks
 There is a total of  4  slices in all the chunks
 
 There is a total of  2  messages to assemble faces between chunks
 
 
 only one chunk, no need to create chunk buffers
 
 
   ...preparing MPI interfaces
 
 outer core region:
   #max of points in MPI buffers along xi npoin2D_xi =  1693
   #max of array elements transferred npoin2D_xi*NDIM =  5079
 
   #max of points in MPI buffers along eta npoin2D_eta =  1741
   #max of array elements transferred npoin2D_eta*NDIM =  5223
 
 outer core MPI:
   maximum interfaces: 3
   MPI addressing maximum interfaces: 3
   MPI addressing : all interfaces okay
 
   total MPI interface points :  14108
   unique MPI interface points:  13364
   maximum valence            :  3
   total assembled MPI interface points: 13364
 
 
   ...element inner/outer separation 
 percentage of edge elements in outer core  36.625515 %
 percentage of volume elements in outer core  63.374485 %
 
 
   ...element mesh coloring 
   mesh coloring:  F
 
   ...creating mass matrix
     updates mass matrix with Stacey boundary corrections
 
   ...saving binary files
 
    calculated top area:  3.59782793599717626E-2
 calculated bottom area:  4.42916151678937262E-3
 
 *******************************************
 creating mesh in region  3
 this region is the inner core
 *******************************************
 
 
 first pass
 
   ...allocating arrays 
 
   ...setting up layers 
 
   ...creating mesh elements 
   creating layer  1 out of  1
    100.0%    current clock (NOT elapsed) time is: 22h 29min 30sec
 
 
   ...creating global addressing
 
   ...creating MPI buffers
 
 second pass
 
   ...allocating arrays 
 
   ...setting up layers 
 
   ...creating mesh elements 
   creating layer  1 out of  1
    100.0%    current clock (NOT elapsed) time is: 22h 29min 31sec
 
 
   ...precomputing Jacobian
 
   ...creating chunk buffers
 
 ----- creating chunk buffers -----
 
 There are  2  slices along xi in each chunk
 There are  2  slices along eta in each chunk
 There is a total of  4  slices in each chunk
 There are  1  chunks
 There is a total of  4  slices in all the chunks
 
 There is a total of  2  messages to assemble faces between chunks
 
 
 only one chunk, no need to create chunk buffers
 
 
   ...preparing MPI interfaces
 
 inner core region:
   #max of points in MPI buffers along xi npoin2D_xi =  169
   #max of array elements transferred npoin2D_xi*NDIM =  507
 
   #max of points in MPI buffers along eta npoin2D_eta =  169
   #max of array elements transferred npoin2D_eta*NDIM =  507
 
 inner core MPI:
   maximum interfaces: 3
   MPI addressing maximum interfaces: 3
   MPI addressing : all interfaces okay
 
   total MPI interface points :  1404
   unique MPI interface points:  1300
   maximum valence            :  3
   total assembled MPI interface points: 1300
 
 
   ...element inner/outer separation 
 percentage of edge elements in inner core  55.5555534 %
 percentage of volume elements in inner core  44.4444466 %
 
 
   ...element mesh coloring 
   mesh coloring:  F
 
   ...creating mass matrix
     updates mass matrix with Stacey boundary corrections
 
   ...saving binary files
 
    calculated top area:  4.42916151678937262E-3
 calculated bottom area:  2.59724965075158005E-3
 
 calculated volume:  4.00462176888697619E-2
 
 Repartition of elements in regions:
 ----------------------------------
 
 total number of elements in each slice:  5841
 
  - crust and mantle:  91.2172546  %
  - outer core:  8.32049274  %
  - inner core:  0.462249607  %
 
 for some mesh statistics, see comments in file OUTPUT_FILES/values_from_mesher.h
 
 Load balancing = 100 % by definition
 
 
 the time step of the solver will be DT =  0.169376865
 
 using single precision for the calculations
 
 smallest and largest possible floating-point numbers are:  1.175494351E-38,  3.402823466E+38
 
 
 Elapsed time for mesh generation and buffer creation in seconds =  12.455458164215088
 Elapsed time for mesh generation and buffer creation in hh:mm:ss =    0 h 00 m 12 s
 
 End of mesh generation
 
